version 2
run Wireless01-253-20200710-12:28:56-3895
attr configname Wireless01
attr datetime 20200710-12:28:56
attr experiment Wireless01
attr inifile omnetpp.ini
attr iterationvars $name=Wireless_12_10m
attr iterationvarsf name=Wireless#_12#_10m-
attr measurement $name=Wireless_12_10m
attr network "${name=Wireless_3_1m,Wireless_3_5m, Wireless_3_10m, Wireless_6_1m, Wireless_6_5m, Wireless_6_10m, Wireless_12_1m, Wireless_12_5m, Wireless_12_10m }"
attr processid 3895
attr repetition 13
attr replication #13
attr resultdir results
attr runnumber 253
attr seedset 253
itervar name Wireless_12_10m
param *.hostA.numApps 1
param *.hostA.app[0].typename "\"TDOAApp\""
param *.hostA.app[0].destAddresses "\"Broadcast\""
param *.hostA.app[0].destPort 5000
param *.hostA.app[0].localPort 6000
param *.hostA.app[0].isReceiver false
param *.hostA.app[0].Nome_arquivo "\"Wireless_12_10m.csv\""
param *.host*.numApps 1
param *.host*.app[0].typename "\"TDOAApp\""
param *.host*.app[0].localPort 5000
param *.host*.app[0].destPort 6000
param *.host*.app[0].destAddresses "\"hostA\""
param *.host*.app[0].isReceiver true
param *.host*.wlan[0].typename "\"WirelessInterface\""
param *.radioMedium.typename "\"ApskScalarRadioMedium\""
param *.radioMedium.backgroundNoise.power -90dBm
param *.radioMedium.mediumLimitCache.centerFrequency 2GHz
param *.host*.wlan[0].radio.typename "\"ApskScalarRadio\""
param *.host*.wlan[0].radio.centerFrequency 2GHz
param *.host*.wlan[0].radio.bandwidth 2MHz
param *.host*.wlan[0].radio.transmitter.power 1.4mW
param *.host*.wlan[0].radio.transmitter.preambleDuration 10us
param *.host*.wlan[0].radio.transmitter.headerLength 8B
param *.host*.wlan[0].radio.receiver.sensitivity -85dBm
param *.host*.wlan[0].radio.receiver.energyDetection -85dBm
param *.host*.wlan[0].radio.receiver.snirThreshold 4dB
param *.host*.wlan[0].mac.typename "\"CsmaCaMac\""
param *.host*.wlan[0].mac.ackTimeout 300us
param *.host*.wlan[0].mac.useAck true
param *.host*.wlan[0].mac.fullDuplex false
param *.host*.wlan[0].radio.receiver.ignoreInterference true
param *.host*.wlan[0].mac.headerLength 23B
param *.host*.**.bitrate 1Mbps
param *.host*.ipv4.arp.typename "\"GlobalArp\""
param **.ip.limitedBroadcast true

scalar Wireless_12_10m.radioMedium.propagation "Arrival computation count" 348
scalar Wireless_12_10m.radioMedium "transmission count" 29
scalar Wireless_12_10m.radioMedium "signal send count" 348
scalar Wireless_12_10m.radioMedium "reception computation count" 348
scalar Wireless_12_10m.radioMedium "interference computation count" 1056
scalar Wireless_12_10m.radioMedium "reception decision computation count" 322
scalar Wireless_12_10m.radioMedium "listening decision computation count" 390
scalar Wireless_12_10m.radioMedium "reception cache hit" 85.584092792046
attr unit %
scalar Wireless_12_10m.radioMedium "interference cache hit" 66.666666666667
attr unit %
scalar Wireless_12_10m.radioMedium "noise cache hit" 0
attr unit %
scalar Wireless_12_10m.radioMedium "snir cache hit" 50
attr unit %
scalar Wireless_12_10m.radioMedium "reception decision cache hit" 50
attr unit %
scalar Wireless_12_10m.radioMedium "reception result cache hit" 0
attr unit %
scalar Wireless_12_10m.hostA.lo[0].lo rcvdPkFromHl:count 1
attr interpolationmode none
attr source packetReceivedFromUpper
attr title "packets received from higher layer, count"
scalar Wireless_12_10m.hostA.lo[0].lo rcvdPkFromHl:sum(packetBytes) 32
attr interpolationmode none
attr source packetReceivedFromUpper
attr title "packets received from higher layer, sum(packetBytes)"
scalar Wireless_12_10m.hostA.lo[0].lo passedUpPk:count 1
attr interpolationmode none
attr source packetSentToUpper
attr title "packets passed to higher layer, count"
scalar Wireless_12_10m.hostA.lo[0].lo passedUpPk:sum(packetBytes) 32
attr interpolationmode none
attr source packetSentToUpper
attr title "packets passed to higher layer, sum(packetBytes)"
scalar Wireless_12_10m.hostA.wlan[0].mac.queue packetPopped:count 1
attr interpolationmode none
attr title "packet popped, count"
scalar Wireless_12_10m.hostA.wlan[0].mac.queue packetPopped:sum(packetBytes) 59
attr interpolationmode none
attr title "packet popped, sum(packetBytes)"
statistic Wireless_12_10m.hostA.wlan[0].mac.queue queueingTime:histogram
field count 1
field mean 0
field stddev -nan
field min 0
field max 0
field sum 0
field sqrsum 0
attr interpolationmode none
attr source queueingTime(packetPopped)
attr title "queueing times, histogram"
attr unit s
bin	-inf	0
bin	-0.5	0
bin	-0.48	0
bin	-0.46	0
bin	-0.44	0
bin	-0.42	0
bin	-0.4	0
bin	-0.38	0
bin	-0.36	0
bin	-0.34	0
bin	-0.32	0
bin	-0.3	0
bin	-0.28	0
bin	-0.26	0
bin	-0.24	0
bin	-0.22	0
bin	-0.2	0
bin	-0.18	0
bin	-0.16	0
bin	-0.14	0
bin	-0.12	0
bin	-0.1	0
bin	-0.08	0
bin	-0.06	0
bin	-0.04	0
bin	-0.02	0
bin	0	1
bin	0.02	0
bin	0.04	0
bin	0.06	0
bin	0.08	0
bin	0.1	0
bin	0.12	0
bin	0.14	0
bin	0.16	0
bin	0.18	0
bin	0.2	0
bin	0.22	0
bin	0.24	0
bin	0.26	0
bin	0.28	0
bin	0.3	0
bin	0.32	0
bin	0.34	0
bin	0.36	0
bin	0.38	0
bin	0.4	0
bin	0.42	0
bin	0.44	0
bin	0.46	0
bin	0.48	0
bin	0.5	0
scalar Wireless_12_10m.hostA.wlan[0].mac.queue queueLength:max 1
attr interpolationmode sample-hold
attr source "count(packetPushed) - count(packetPopped) - count(packetRemoved) - count(packetDropped)"
attr title "queue length, max"
scalar Wireless_12_10m.hostA.wlan[0].mac.queue queueLength:timeavg 0
attr interpolationmode sample-hold
attr source "count(packetPushed) - count(packetPopped) - count(packetRemoved) - count(packetDropped)"
attr title "queue length, timeavg"
scalar Wireless_12_10m.hostA.wlan[0].mac.queue packetPushed:count 1
attr interpolationmode none
attr title "packet pushed, count"
scalar Wireless_12_10m.hostA.wlan[0].mac.queue packetPushed:sum(packetBytes) 59
attr interpolationmode none
attr title "packet pushed, sum(packetBytes)"
scalar Wireless_12_10m.hostA.wlan[0].mac.queue packetDropQueueOverflow:count 0
attr interpolationmode none
attr source packetDropReasonIsQueueOverflow(packetDropped)
attr title "packet drops: queue overflow, count"
scalar Wireless_12_10m.hostA.wlan[0].mac.queue packetDropQueueOverflow:sum(packetBytes) 0
attr interpolationmode none
attr source packetDropReasonIsQueueOverflow(packetDropped)
attr title "packet drops: queue overflow, sum(packetBytes)"
scalar Wireless_12_10m.hostA.wlan[0].mac.queue packetRemoved:count 0
attr interpolationmode none
attr title "packets removed, count"
scalar Wireless_12_10m.hostA.wlan[0].mac.queue packetRemoved:sum(packetBytes) 0
attr interpolationmode none
attr title "packets removed, sum(packetBytes)"
scalar Wireless_12_10m.hostA.wlan[0].mac numRetry 0
scalar Wireless_12_10m.hostA.wlan[0].mac numSentWithoutRetry 0
scalar Wireless_12_10m.hostA.wlan[0].mac numGivenUp 0
scalar Wireless_12_10m.hostA.wlan[0].mac numCollision 2
scalar Wireless_12_10m.hostA.wlan[0].mac numSent 0
scalar Wireless_12_10m.hostA.wlan[0].mac numReceived 12
scalar Wireless_12_10m.hostA.wlan[0].mac numSentBroadcast 1
scalar Wireless_12_10m.hostA.wlan[0].mac numReceivedBroadcast 0
scalar Wireless_12_10m.hostA.wlan[0].mac packetDropIncorrectlyReceived:count 2
attr interpolationmode none
attr source packetDropReasonIsIncorrectlyReceived(packetDropped)
attr title "packet drop: incorrectly received, count"
scalar Wireless_12_10m.hostA.wlan[0].mac packetDropIncorrectlyReceived:sum(packetBytes) 118
attr interpolationmode none
attr source packetDropReasonIsIncorrectlyReceived(packetDropped)
attr title "packet drop: incorrectly received, sum(packetBytes)"
scalar Wireless_12_10m.hostA.wlan[0].mac packetDropNotAddressedToUs:count 0
attr interpolationmode none
attr source packetDropReasonIsNotAddressedToUs(packetDropped)
attr title "packet drop: not addressed to us, count"
scalar Wireless_12_10m.hostA.wlan[0].mac packetDropNotAddressedToUs:sum(packetBytes) 0
attr interpolationmode none
attr source packetDropReasonIsNotAddressedToUs(packetDropped)
attr title "packet drop: not addressed to us, sum(packetBytes)"
scalar Wireless_12_10m.hostA.wlan[0].mac packetDropQueueOverflow:count 0
attr interpolationmode none
attr source packetDropReasonIsQueueOverflow(packetDropped)
attr title "packet drop: queue overflow, count"
scalar Wireless_12_10m.hostA.wlan[0].mac packetDropQueueOverflow:sum(packetBytes) 0
attr interpolationmode none
attr source packetDropReasonIsQueueOverflow(packetDropped)
attr title "packet drop: queue overflow, sum(packetBytes)"
scalar Wireless_12_10m.hostA.wlan[0].mac packetDropRetryLimitReached:count 0
attr interpolationmode none
attr source packetDropReasonIsRetryLimitReached(packetDropped)
attr title "packet drop: retry limit reached, count"
scalar Wireless_12_10m.hostA.wlan[0].mac packetDropRetryLimitReached:sum(packetBytes) 0
attr interpolationmode none
attr source packetDropReasonIsRetryLimitReached(packetDropped)
attr title "packet drop: retry limit reached, sum(packetBytes)"
scalar Wireless_12_10m.hostA.wlan[0].mac linkBroken:count 0
attr interpolationmode none
attr source linkBroken
attr title "link break, count"
scalar Wireless_12_10m.hostA.wlan[0].radio radioMode:count 29
attr interpolationmode sample-hold
attr source radioModeChanged
attr title "Radio mode, count"
scalar Wireless_12_10m.hostA.wlan[0].radio receptionState:count 55
attr interpolationmode sample-hold
attr source receptionStateChanged
attr title "Radio reception state, count"
scalar Wireless_12_10m.hostA.wlan[0].radio transmissionState:count 52
attr interpolationmode sample-hold
attr source transmissionStateChanged
attr title "Radio transmission state, count"
statistic Wireless_12_10m.hostA.wlan[0].radio minSnir:histogram
field count 14
field mean 1707.5728826065
field stddev 723.00563911505
field min 0.99949824430162
field max 1992.0017800002
field sum 23906.020356491
field sqrsum 47616855.096282
attr source minimumSnir(packetSentToUpper)
attr title "Min SNIR, histogram"
bin	-inf	0
bin	0	2
bin	50	0
bin	100	0
bin	150	0
bin	200	0
bin	250	0
bin	300	0
bin	350	0
bin	400	0
bin	450	0
bin	500	0
bin	550	0
bin	600	0
bin	650	0
bin	700	0
bin	750	0
bin	800	0
bin	850	0
bin	900	0
bin	950	0
bin	1000	0
bin	1050	0
bin	1100	0
bin	1150	0
bin	1200	0
bin	1250	0
bin	1300	0
bin	1350	0
bin	1400	0
bin	1450	0
bin	1500	0
bin	1550	0
bin	1600	0
bin	1650	0
bin	1700	0
bin	1750	0
bin	1800	0
bin	1850	0
bin	1900	0
bin	1950	12
bin	2000	0
bin	2050	0
bin	2100	0
bin	2150	0
bin	2200	0
bin	2250	0
bin	2300	0
bin	2350	0
bin	2400	0
bin	2450	0
bin	2500	0
statistic Wireless_12_10m.hostA.wlan[0].radio packetErrorRate:histogram
field count 14
field mean 0.14285652418942
field stddev 0.36313494697536
field min 0
field max 0.99999566932591
field sum 1.9999913386518
field sqrsum 1.9999826773411
attr source packetErrorRate(packetSentToUpper)
attr title "Packet error rate, histogram"
bin	-inf	0
bin	0	12
bin	0.02	0
bin	0.04	0
bin	0.06	0
bin	0.08	0
bin	0.1	0
bin	0.12	0
bin	0.14	0
bin	0.16	0
bin	0.18	0
bin	0.2	0
bin	0.22	0
bin	0.24	0
bin	0.26	0
bin	0.28	0
bin	0.3	0
bin	0.32	0
bin	0.34	0
bin	0.36	0
bin	0.38	0
bin	0.4	0
bin	0.42	0
bin	0.44	0
bin	0.46	0
bin	0.48	0
bin	0.5	0
bin	0.52	0
bin	0.54	0
bin	0.56	0
bin	0.58	0
bin	0.6	0
bin	0.62	0
bin	0.64	0
bin	0.66	0
bin	0.68	0
bin	0.7	0
bin	0.72	0
bin	0.74	0
bin	0.76	0
bin	0.78	0
bin	0.8	0
bin	0.82	0
bin	0.84	0
bin	0.86	0
bin	0.88	0
bin	0.9	0
bin	0.92	0
bin	0.94	0
bin	0.96	0
bin	0.98	2
bin	1	0
bin	1.02	0
bin	1.04	0
bin	1.06	0
bin	1.08	0
bin	1.1	0
bin	1.12	0
bin	1.14	0
bin	1.16	0
bin	1.18	0
bin	1.2	0
bin	1.22	0
bin	1.24	0
bin	1.26	0
statistic Wireless_12_10m.hostA.wlan[0].radio bitErrorRate:histogram
field count 14
field mean 0.0032538913174056
field stddev 0.0082712473771444
field min 0
field max 0.022777239221839
field sum 0.045554478443678
field sqrsum 0.0010376052531378
attr source bitErrorRate(packetSentToUpper)
attr title "Bit error rate, histogram"
bin	-inf	0
bin	0	12
bin	0.0005	0
bin	0.001	0
bin	0.0015	0
bin	0.002	0
bin	0.0025	0
bin	0.003	0
bin	0.0035	0
bin	0.004	0
bin	0.0045	0
bin	0.005	0
bin	0.0055	0
bin	0.006	0
bin	0.0065	0
bin	0.007	0
bin	0.0075	0
bin	0.008	0
bin	0.0085	0
bin	0.009	0
bin	0.0095	0
bin	0.01	0
bin	0.0105	0
bin	0.011	0
bin	0.0115	0
bin	0.012	0
bin	0.0125	0
bin	0.013	0
bin	0.0135	0
bin	0.014	0
bin	0.0145	0
bin	0.015	0
bin	0.0155	0
bin	0.016	0
bin	0.0165	0
bin	0.017	0
bin	0.0175	0
bin	0.018	0
bin	0.0185	0
bin	0.019	0
bin	0.0195	0
bin	0.02	0
bin	0.0205	0
bin	0.021	0
bin	0.0215	0
bin	0.022	0
bin	0.0225	2
bin	0.023	0
bin	0.0235	0
bin	0.024	0
bin	0.0245	0
bin	0.025	0
bin	0.0255	0
bin	0.026	0
bin	0.0265	0
bin	0.027	0
bin	0.0275	0
bin	0.028	0
bin	0.0285	0
statistic Wireless_12_10m.hostA.wlan[0].radio symbolErrorRate:histogram
field count 14
field mean 0.0032538913174056
field stddev 0.0082712473771444
field min 0
field max 0.022777239221839
field sum 0.045554478443678
field sqrsum 0.0010376052531378
attr source symbolErrorRate(packetSentToUpper)
attr title "Symbol error rate, histogram"
bin	-inf	0
bin	0	12
bin	0.0005	0
bin	0.001	0
bin	0.0015	0
bin	0.002	0
bin	0.0025	0
bin	0.003	0
bin	0.0035	0
bin	0.004	0
bin	0.0045	0
bin	0.005	0
bin	0.0055	0
bin	0.006	0
bin	0.0065	0
bin	0.007	0
bin	0.0075	0
bin	0.008	0
bin	0.0085	0
bin	0.009	0
bin	0.0095	0
bin	0.01	0
bin	0.0105	0
bin	0.011	0
bin	0.0115	0
bin	0.012	0
bin	0.0125	0
bin	0.013	0
bin	0.0135	0
bin	0.014	0
bin	0.0145	0
bin	0.015	0
bin	0.0155	0
bin	0.016	0
bin	0.0165	0
bin	0.017	0
bin	0.0175	0
bin	0.018	0
bin	0.0185	0
bin	0.019	0
bin	0.0195	0
bin	0.02	0
bin	0.0205	0
bin	0.021	0
bin	0.0215	0
bin	0.022	0
bin	0.0225	2
bin	0.023	0
bin	0.0235	0
bin	0.024	0
bin	0.0245	0
bin	0.025	0
bin	0.0255	0
bin	0.026	0
bin	0.0265	0
bin	0.027	0
bin	0.0275	0
bin	0.028	0
bin	0.0285	0
scalar Wireless_12_10m.hostA.ipv4.ip packetDropAddressResolutionFailed:count 0
attr interpolationmode none
attr source packetDropReasonIsAddressResolutionFailed(packetDropped)
attr title "packet drop: address resolution failed, count"
scalar Wireless_12_10m.hostA.ipv4.ip packetDropAddressResolutionFailed:sum(packetBytes) 0
attr interpolationmode none
attr source packetDropReasonIsAddressResolutionFailed(packetDropped)
attr title "packet drop: address resolution failed, sum(packetBytes)"
scalar Wireless_12_10m.hostA.ipv4.ip packetDropHopLimitReached:count 0
attr interpolationmode none
attr source packetDropReasonIsHopLimitReached(packetDropped)
attr title "packet drop: hop limit reached, count"
scalar Wireless_12_10m.hostA.ipv4.ip packetDropHopLimitReached:sum(packetBytes) 0
attr interpolationmode none
attr source packetDropReasonIsHopLimitReached(packetDropped)
attr title "packet drop: hop limit reached, sum(packetBytes)"
scalar Wireless_12_10m.hostA.ipv4.ip packetDropForwardingDisabled:count 0
attr interpolationmode none
attr source packetDropReasonIsForwardingDisabled(packetDropped)
attr title "packet drop: forwarding disabled, count"
scalar Wireless_12_10m.hostA.ipv4.ip packetDropForwardingDisabled:sum(packetBytes) 0
attr interpolationmode none
attr source packetDropReasonIsForwardingDisabled(packetDropped)
attr title "packet drop: forwarding disabled, sum(packetBytes)"
scalar Wireless_12_10m.hostA.ipv4.ip packetDropNoInterfaceFound:count 0
attr interpolationmode none
attr source packetDropReasonIsNoInterfaceFound(packetDropped)
attr title "packet drop: no interface found, count"
scalar Wireless_12_10m.hostA.ipv4.ip packetDropNoInterfaceFound:sum(packetBytes) 0
attr interpolationmode none
attr source packetDropReasonIsNoInterfaceFound(packetDropped)
attr title "packet drop: no interface found, sum(packetBytes)"
scalar Wireless_12_10m.hostA.ipv4.ip packetDropNoRouteFound:count 0
attr interpolationmode none
attr source packetDropReasonIsNoRouteFound(packetDropped)
attr title "packet drop: no route found, count"
scalar Wireless_12_10m.hostA.ipv4.ip packetDropNoRouteFound:sum(packetBytes) 0
attr interpolationmode none
attr source packetDropReasonIsNoRouteFound(packetDropped)
attr title "packet drop: no route found, sum(packetBytes)"
scalar Wireless_12_10m.hostA.ipv4.ip packetDropUndefined:count 0
attr interpolationmode none
attr source packetDropReasonIsUndefined(packetDropped)
attr title "packet drop: undefined, count"
scalar Wireless_12_10m.hostA.ipv4.ip packetDropUndefined:sum(packetBytes) 0
attr interpolationmode none
attr source packetDropReasonIsUndefined(packetDropped)
attr title "packet drop: undefined, sum(packetBytes)"
scalar Wireless_12_10m.hostA.udp packetReceived:count 13
attr interpolationmode none
attr source packetReceived
attr title "packets received, count"
scalar Wireless_12_10m.hostA.udp packetReceived:sum(packetBytes) 156
attr interpolationmode none
attr source packetReceived
attr title "packets received, sum(packetBytes)"
scalar Wireless_12_10m.hostA.udp packetSent:count 1
attr interpolationmode none
attr source packetSent
attr title "packets sent, count"
scalar Wireless_12_10m.hostA.udp packetSent:sum(packetBytes) 12
attr interpolationmode none
attr source packetSent
attr title "packets sent, sum(packetBytes)"
scalar Wireless_12_10m.hostA.udp passedUpPk:count 12
attr interpolationmode none
attr source packetSentToUpper
attr title "packets passed up, count"
scalar Wireless_12_10m.hostA.udp droppedPkWrongPort:count 1
attr interpolationmode none
attr source packetDropReasonIsNoPortFound(packetDropped)
attr title "packets dropped (wrong port), count"
scalar Wireless_12_10m.hostA.udp droppedPkBadChecksum:count 0
attr interpolationmode none
attr source packetDropReasonIsIncorrectlyReceived(packetDropped)
attr title "packets dropped (checksum error), count"
scalar Wireless_12_10m.hostB.lo[0].lo rcvdPkFromHl:count 0
attr interpolationmode none
attr source packetReceivedFromUpper
attr title "packets received from higher layer, count"
scalar Wireless_12_10m.hostB.lo[0].lo rcvdPkFromHl:sum(packetBytes) 0
attr interpolationmode none
attr source packetReceivedFromUpper
attr title "packets received from higher layer, sum(packetBytes)"
scalar Wireless_12_10m.hostB.lo[0].lo passedUpPk:count 0
attr interpolationmode none
attr source packetSentToUpper
attr title "packets passed to higher layer, count"
scalar Wireless_12_10m.hostB.lo[0].lo passedUpPk:sum(packetBytes) 0
attr interpolationmode none
attr source packetSentToUpper
attr title "packets passed to higher layer, sum(packetBytes)"
scalar Wireless_12_10m.hostB.wlan[0].mac.queue packetPopped:count 1
attr interpolationmode none
attr title "packet popped, count"
scalar Wireless_12_10m.hostB.wlan[0].mac.queue packetPopped:sum(packetBytes) 59
attr interpolationmode none
attr title "packet popped, sum(packetBytes)"
statistic Wireless_12_10m.hostB.wlan[0].mac.queue queueingTime:histogram
field count 1
field mean 0
field stddev -nan
field min 0
field max 0
field sum 0
field sqrsum 0
attr interpolationmode none
attr source queueingTime(packetPopped)
attr title "queueing times, histogram"
attr unit s
bin	-inf	0
bin	-0.5	0
bin	-0.48	0
bin	-0.46	0
bin	-0.44	0
bin	-0.42	0
bin	-0.4	0
bin	-0.38	0
bin	-0.36	0
bin	-0.34	0
bin	-0.32	0
bin	-0.3	0
bin	-0.28	0
bin	-0.26	0
bin	-0.24	0
bin	-0.22	0
bin	-0.2	0
bin	-0.18	0
bin	-0.16	0
bin	-0.14	0
bin	-0.12	0
bin	-0.1	0
bin	-0.08	0
bin	-0.06	0
bin	-0.04	0
bin	-0.02	0
bin	0	1
bin	0.02	0
bin	0.04	0
bin	0.06	0
bin	0.08	0
bin	0.1	0
bin	0.12	0
bin	0.14	0
bin	0.16	0
bin	0.18	0
bin	0.2	0
bin	0.22	0
bin	0.24	0
bin	0.26	0
bin	0.28	0
bin	0.3	0
bin	0.32	0
bin	0.34	0
bin	0.36	0
bin	0.38	0
bin	0.4	0
bin	0.42	0
bin	0.44	0
bin	0.46	0
bin	0.48	0
bin	0.5	0
scalar Wireless_12_10m.hostB.wlan[0].mac.queue queueLength:max 1
attr interpolationmode sample-hold
attr source "count(packetPushed) - count(packetPopped) - count(packetRemoved) - count(packetDropped)"
attr title "queue length, max"
scalar Wireless_12_10m.hostB.wlan[0].mac.queue queueLength:timeavg 0
attr interpolationmode sample-hold
attr source "count(packetPushed) - count(packetPopped) - count(packetRemoved) - count(packetDropped)"
attr title "queue length, timeavg"
scalar Wireless_12_10m.hostB.wlan[0].mac.queue packetPushed:count 1
attr interpolationmode none
attr title "packet pushed, count"
scalar Wireless_12_10m.hostB.wlan[0].mac.queue packetPushed:sum(packetBytes) 59
attr interpolationmode none
attr title "packet pushed, sum(packetBytes)"
scalar Wireless_12_10m.hostB.wlan[0].mac.queue packetDropQueueOverflow:count 0
attr interpolationmode none
attr source packetDropReasonIsQueueOverflow(packetDropped)
attr title "packet drops: queue overflow, count"
scalar Wireless_12_10m.hostB.wlan[0].mac.queue packetDropQueueOverflow:sum(packetBytes) 0
attr interpolationmode none
attr source packetDropReasonIsQueueOverflow(packetDropped)
attr title "packet drops: queue overflow, sum(packetBytes)"
scalar Wireless_12_10m.hostB.wlan[0].mac.queue packetRemoved:count 0
attr interpolationmode none
attr title "packets removed, count"
scalar Wireless_12_10m.hostB.wlan[0].mac.queue packetRemoved:sum(packetBytes) 0
attr interpolationmode none
attr title "packets removed, sum(packetBytes)"
scalar Wireless_12_10m.hostB.wlan[0].mac numRetry 0
scalar Wireless_12_10m.hostB.wlan[0].mac numSentWithoutRetry 1
scalar Wireless_12_10m.hostB.wlan[0].mac numGivenUp 0
scalar Wireless_12_10m.hostB.wlan[0].mac numCollision 1
scalar Wireless_12_10m.hostB.wlan[0].mac numSent 1
scalar Wireless_12_10m.hostB.wlan[0].mac numReceived 0
scalar Wireless_12_10m.hostB.wlan[0].mac numSentBroadcast 0
scalar Wireless_12_10m.hostB.wlan[0].mac numReceivedBroadcast 1
scalar Wireless_12_10m.hostB.wlan[0].mac packetDropIncorrectlyReceived:count 1
attr interpolationmode none
attr source packetDropReasonIsIncorrectlyReceived(packetDropped)
attr title "packet drop: incorrectly received, count"
scalar Wireless_12_10m.hostB.wlan[0].mac packetDropIncorrectlyReceived:sum(packetBytes) 59
attr interpolationmode none
attr source packetDropReasonIsIncorrectlyReceived(packetDropped)
attr title "packet drop: incorrectly received, sum(packetBytes)"
scalar Wireless_12_10m.hostB.wlan[0].mac packetDropNotAddressedToUs:count 12
attr interpolationmode none
attr source packetDropReasonIsNotAddressedToUs(packetDropped)
attr title "packet drop: not addressed to us, count"
scalar Wireless_12_10m.hostB.wlan[0].mac packetDropNotAddressedToUs:sum(packetBytes) 708
attr interpolationmode none
attr source packetDropReasonIsNotAddressedToUs(packetDropped)
attr title "packet drop: not addressed to us, sum(packetBytes)"
scalar Wireless_12_10m.hostB.wlan[0].mac packetDropQueueOverflow:count 0
attr interpolationmode none
attr source packetDropReasonIsQueueOverflow(packetDropped)
attr title "packet drop: queue overflow, count"
scalar Wireless_12_10m.hostB.wlan[0].mac packetDropQueueOverflow:sum(packetBytes) 0
attr interpolationmode none
attr source packetDropReasonIsQueueOverflow(packetDropped)
attr title "packet drop: queue overflow, sum(packetBytes)"
scalar Wireless_12_10m.hostB.wlan[0].mac packetDropRetryLimitReached:count 0
attr interpolationmode none
attr source packetDropReasonIsRetryLimitReached(packetDropped)
attr title "packet drop: retry limit reached, count"
scalar Wireless_12_10m.hostB.wlan[0].mac packetDropRetryLimitReached:sum(packetBytes) 0
attr interpolationmode none
attr source packetDropReasonIsRetryLimitReached(packetDropped)
attr title "packet drop: retry limit reached, sum(packetBytes)"
scalar Wireless_12_10m.hostB.wlan[0].mac linkBroken:count 0
attr interpolationmode none
attr source linkBroken
attr title "link break, count"
scalar Wireless_12_10m.hostB.wlan[0].radio radioMode:count 5
attr interpolationmode sample-hold
attr source radioModeChanged
attr title "Radio mode, count"
scalar Wireless_12_10m.hostB.wlan[0].radio receptionState:count 57
attr interpolationmode sample-hold
attr source receptionStateChanged
attr title "Radio reception state, count"
scalar Wireless_12_10m.hostB.wlan[0].radio transmissionState:count 4
attr interpolationmode sample-hold
attr source transmissionStateChanged
attr title "Radio transmission state, count"
statistic Wireless_12_10m.hostB.wlan[0].radio minSnir:histogram
field count 26
field mean 1714.3885678005
field stddev 1386.9242238933
field min 1.9979939837366
field max 7434.2518517284
field sum 44574.102762812
field sqrsum 124506302.26708
attr source minimumSnir(packetSentToUpper)
attr title "Min SNIR, histogram"
bin	-inf	0
bin	0	2
bin	200	0
bin	400	4
bin	600	1
bin	800	2
bin	1000	0
bin	1200	0
bin	1400	0
bin	1600	0
bin	1800	15
bin	2000	0
bin	2200	0
bin	2400	1
bin	2600	0
bin	2800	0
bin	3000	0
bin	3200	0
bin	3400	0
bin	3600	0
bin	3800	0
bin	4000	0
bin	4200	0
bin	4400	0
bin	4600	0
bin	4800	0
bin	5000	0
bin	5200	0
bin	5400	0
bin	5600	0
bin	5800	0
bin	6000	0
bin	6200	0
bin	6400	0
bin	6600	0
bin	6800	0
bin	7000	0
bin	7200	0
bin	7400	1
bin	7600	0
bin	7800	0
bin	8000	0
bin	8200	0
bin	8400	0
bin	8600	0
bin	8800	0
bin	9000	0
bin	9200	0
bin	9400	0
statistic Wireless_12_10m.hostB.wlan[0].radio packetErrorRate:histogram
field count 26
field mean 0.027559210040219
field stddev 0.14052494977363
field min 0
field max 0.71653946104253
field sum 0.71653946104569
field sqrsum 0.51342879923112
attr source packetErrorRate(packetSentToUpper)
attr title "Packet error rate, histogram"
bin	-inf	0
bin	0	25
bin	0.01	0
bin	0.02	0
bin	0.03	0
bin	0.04	0
bin	0.05	0
bin	0.06	0
bin	0.07	0
bin	0.08	0
bin	0.09	0
bin	0.1	0
bin	0.11	0
bin	0.12	0
bin	0.13	0
bin	0.14	0
bin	0.15	0
bin	0.16	0
bin	0.17	0
bin	0.18	0
bin	0.19	0
bin	0.2	0
bin	0.21	0
bin	0.22	0
bin	0.23	0
bin	0.24	0
bin	0.25	0
bin	0.26	0
bin	0.27	0
bin	0.28	0
bin	0.29	0
bin	0.3	0
bin	0.31	0
bin	0.32	0
bin	0.33	0
bin	0.34	0
bin	0.35	0
bin	0.36	0
bin	0.37	0
bin	0.38	0
bin	0.39	0
bin	0.4	0
bin	0.41	0
bin	0.42	0
bin	0.43	0
bin	0.44	0
bin	0.45	0
bin	0.46	0
bin	0.47	0
bin	0.48	0
bin	0.49	0
bin	0.5	0
bin	0.51	0
bin	0.52	0
bin	0.53	0
bin	0.54	0
bin	0.55	0
bin	0.56	0
bin	0.57	0
bin	0.58	0
bin	0.59	0
bin	0.6	0
bin	0.61	0
bin	0.62	0
bin	0.63	0
bin	0.64	0
bin	0.65	0
bin	0.66	0
bin	0.67	0
bin	0.68	0
bin	0.69	0
bin	0.7	0
bin	0.71	1
bin	0.72	0
bin	0.73	0
bin	0.74	0
bin	0.75	0
bin	0.76	0
bin	0.77	0
bin	0.78	0
bin	0.79	0
bin	0.8	0
bin	0.81	0
bin	0.82	0
bin	0.83	0
bin	0.84	0
bin	0.85	0
bin	0.86	0
bin	0.87	0
bin	0.88	0
bin	0.89	0
bin	0.9	0
statistic Wireless_12_10m.hostB.wlan[0].radio bitErrorRate:histogram
field count 26
field mean 9.0355980548693e-05
field stddev 0.00046072690798641
field min 0
field max 0.0023492554942602
field sum 0.002349255494266
field sqrsum 5.5190013773117e-06
attr source bitErrorRate(packetSentToUpper)
attr title "Bit error rate, histogram"
bin	-inf	0
bin	0	25
bin	5e-05	0
bin	0.0001	0
bin	0.00015	0
bin	0.0002	0
bin	0.00025	0
bin	0.0003	0
bin	0.00035	0
bin	0.0004	0
bin	0.00045	0
bin	0.0005	0
bin	0.00055	0
bin	0.0006	0
bin	0.00065	0
bin	0.0007	0
bin	0.00075	0
bin	0.0008	0
bin	0.00085	0
bin	0.0009	0
bin	0.00095	0
bin	0.001	0
bin	0.00105	0
bin	0.0011	0
bin	0.00115	0
bin	0.0012	0
bin	0.00125	0
bin	0.0013	0
bin	0.00135	0
bin	0.0014	0
bin	0.00145	0
bin	0.0015	0
bin	0.00155	0
bin	0.0016	0
bin	0.00165	0
bin	0.0017	0
bin	0.00175	0
bin	0.0018	0
bin	0.00185	0
bin	0.0019	0
bin	0.00195	0
bin	0.002	0
bin	0.00205	0
bin	0.0021	0
bin	0.00215	0
bin	0.0022	0
bin	0.00225	0
bin	0.0023	1
bin	0.00235	0
bin	0.0024	0
bin	0.00245	0
bin	0.0025	0
bin	0.00255	0
bin	0.0026	0
bin	0.00265	0
bin	0.0027	0
bin	0.00275	0
bin	0.0028	0
bin	0.00285	0
bin	0.0029	0
bin	0.00295	0
statistic Wireless_12_10m.hostB.wlan[0].radio symbolErrorRate:histogram
field count 26
field mean 9.0355980548693e-05
field stddev 0.00046072690798641
field min 0
field max 0.0023492554942602
field sum 0.002349255494266
field sqrsum 5.5190013773117e-06
attr source symbolErrorRate(packetSentToUpper)
attr title "Symbol error rate, histogram"
bin	-inf	0
bin	0	25
bin	5e-05	0
bin	0.0001	0
bin	0.00015	0
bin	0.0002	0
bin	0.00025	0
bin	0.0003	0
bin	0.00035	0
bin	0.0004	0
bin	0.00045	0
bin	0.0005	0
bin	0.00055	0
bin	0.0006	0
bin	0.00065	0
bin	0.0007	0
bin	0.00075	0
bin	0.0008	0
bin	0.00085	0
bin	0.0009	0
bin	0.00095	0
bin	0.001	0
bin	0.00105	0
bin	0.0011	0
bin	0.00115	0
bin	0.0012	0
bin	0.00125	0
bin	0.0013	0
bin	0.00135	0
bin	0.0014	0
bin	0.00145	0
bin	0.0015	0
bin	0.00155	0
bin	0.0016	0
bin	0.00165	0
bin	0.0017	0
bin	0.00175	0
bin	0.0018	0
bin	0.00185	0
bin	0.0019	0
bin	0.00195	0
bin	0.002	0
bin	0.00205	0
bin	0.0021	0
bin	0.00215	0
bin	0.0022	0
bin	0.00225	0
bin	0.0023	1
bin	0.00235	0
bin	0.0024	0
bin	0.00245	0
bin	0.0025	0
bin	0.00255	0
bin	0.0026	0
bin	0.00265	0
bin	0.0027	0
bin	0.00275	0
bin	0.0028	0
bin	0.00285	0
bin	0.0029	0
bin	0.00295	0
scalar Wireless_12_10m.hostB.ipv4.ip packetDropAddressResolutionFailed:count 0
attr interpolationmode none
attr source packetDropReasonIsAddressResolutionFailed(packetDropped)
attr title "packet drop: address resolution failed, count"
scalar Wireless_12_10m.hostB.ipv4.ip packetDropAddressResolutionFailed:sum(packetBytes) 0
attr interpolationmode none
attr source packetDropReasonIsAddressResolutionFailed(packetDropped)
attr title "packet drop: address resolution failed, sum(packetBytes)"
scalar Wireless_12_10m.hostB.ipv4.ip packetDropHopLimitReached:count 0
attr interpolationmode none
attr source packetDropReasonIsHopLimitReached(packetDropped)
attr title "packet drop: hop limit reached, count"
scalar Wireless_12_10m.hostB.ipv4.ip packetDropHopLimitReached:sum(packetBytes) 0
attr interpolationmode none
attr source packetDropReasonIsHopLimitReached(packetDropped)
attr title "packet drop: hop limit reached, sum(packetBytes)"
scalar Wireless_12_10m.hostB.ipv4.ip packetDropForwardingDisabled:count 0
attr interpolationmode none
attr source packetDropReasonIsForwardingDisabled(packetDropped)
attr title "packet drop: forwarding disabled, count"
scalar Wireless_12_10m.hostB.ipv4.ip packetDropForwardingDisabled:sum(packetBytes) 0
attr interpolationmode none
attr source packetDropReasonIsForwardingDisabled(packetDropped)
attr title "packet drop: forwarding disabled, sum(packetBytes)"
scalar Wireless_12_10m.hostB.ipv4.ip packetDropNoInterfaceFound:count 0
attr interpolationmode none
attr source packetDropReasonIsNoInterfaceFound(packetDropped)
attr title "packet drop: no interface found, count"
scalar Wireless_12_10m.hostB.ipv4.ip packetDropNoInterfaceFound:sum(packetBytes) 0
attr interpolationmode none
attr source packetDropReasonIsNoInterfaceFound(packetDropped)
attr title "packet drop: no interface found, sum(packetBytes)"
scalar Wireless_12_10m.hostB.ipv4.ip packetDropNoRouteFound:count 0
attr interpolationmode none
attr source packetDropReasonIsNoRouteFound(packetDropped)
attr title "packet drop: no route found, count"
scalar Wireless_12_10m.hostB.ipv4.ip packetDropNoRouteFound:sum(packetBytes) 0
attr interpolationmode none
attr source packetDropReasonIsNoRouteFound(packetDropped)
attr title "packet drop: no route found, sum(packetBytes)"
scalar Wireless_12_10m.hostB.ipv4.ip packetDropUndefined:count 0
attr interpolationmode none
attr source packetDropReasonIsUndefined(packetDropped)
attr title "packet drop: undefined, count"
scalar Wireless_12_10m.hostB.ipv4.ip packetDropUndefined:sum(packetBytes) 0
attr interpolationmode none
attr source packetDropReasonIsUndefined(packetDropped)
attr title "packet drop: undefined, sum(packetBytes)"
scalar Wireless_12_10m.hostB.udp packetReceived:count 1
attr interpolationmode none
attr source packetReceived
attr title "packets received, count"
scalar Wireless_12_10m.hostB.udp packetReceived:sum(packetBytes) 12
attr interpolationmode none
attr source packetReceived
attr title "packets received, sum(packetBytes)"
scalar Wireless_12_10m.hostB.udp packetSent:count 1
attr interpolationmode none
attr source packetSent
attr title "packets sent, count"
scalar Wireless_12_10m.hostB.udp packetSent:sum(packetBytes) 12
attr interpolationmode none
attr source packetSent
attr title "packets sent, sum(packetBytes)"
scalar Wireless_12_10m.hostB.udp passedUpPk:count 1
attr interpolationmode none
attr source packetSentToUpper
attr title "packets passed up, count"
scalar Wireless_12_10m.hostB.udp droppedPkWrongPort:count 0
attr interpolationmode none
attr source packetDropReasonIsNoPortFound(packetDropped)
attr title "packets dropped (wrong port), count"
scalar Wireless_12_10m.hostB.udp droppedPkBadChecksum:count 0
attr interpolationmode none
attr source packetDropReasonIsIncorrectlyReceived(packetDropped)
attr title "packets dropped (checksum error), count"
scalar Wireless_12_10m.hostC.lo[0].lo rcvdPkFromHl:count 0
attr interpolationmode none
attr source packetReceivedFromUpper
attr title "packets received from higher layer, count"
scalar Wireless_12_10m.hostC.lo[0].lo rcvdPkFromHl:sum(packetBytes) 0
attr interpolationmode none
attr source packetReceivedFromUpper
attr title "packets received from higher layer, sum(packetBytes)"
scalar Wireless_12_10m.hostC.lo[0].lo passedUpPk:count 0
attr interpolationmode none
attr source packetSentToUpper
attr title "packets passed to higher layer, count"
scalar Wireless_12_10m.hostC.lo[0].lo passedUpPk:sum(packetBytes) 0
attr interpolationmode none
attr source packetSentToUpper
attr title "packets passed to higher layer, sum(packetBytes)"
scalar Wireless_12_10m.hostC.wlan[0].mac.queue packetPopped:count 1
attr interpolationmode none
attr title "packet popped, count"
scalar Wireless_12_10m.hostC.wlan[0].mac.queue packetPopped:sum(packetBytes) 59
attr interpolationmode none
attr title "packet popped, sum(packetBytes)"
statistic Wireless_12_10m.hostC.wlan[0].mac.queue queueingTime:histogram
field count 1
field mean 0
field stddev -nan
field min 0
field max 0
field sum 0
field sqrsum 0
attr interpolationmode none
attr source queueingTime(packetPopped)
attr title "queueing times, histogram"
attr unit s
bin	-inf	0
bin	-0.5	0
bin	-0.48	0
bin	-0.46	0
bin	-0.44	0
bin	-0.42	0
bin	-0.4	0
bin	-0.38	0
bin	-0.36	0
bin	-0.34	0
bin	-0.32	0
bin	-0.3	0
bin	-0.28	0
bin	-0.26	0
bin	-0.24	0
bin	-0.22	0
bin	-0.2	0
bin	-0.18	0
bin	-0.16	0
bin	-0.14	0
bin	-0.12	0
bin	-0.1	0
bin	-0.08	0
bin	-0.06	0
bin	-0.04	0
bin	-0.02	0
bin	0	1
bin	0.02	0
bin	0.04	0
bin	0.06	0
bin	0.08	0
bin	0.1	0
bin	0.12	0
bin	0.14	0
bin	0.16	0
bin	0.18	0
bin	0.2	0
bin	0.22	0
bin	0.24	0
bin	0.26	0
bin	0.28	0
bin	0.3	0
bin	0.32	0
bin	0.34	0
bin	0.36	0
bin	0.38	0
bin	0.4	0
bin	0.42	0
bin	0.44	0
bin	0.46	0
bin	0.48	0
bin	0.5	0
scalar Wireless_12_10m.hostC.wlan[0].mac.queue queueLength:max 1
attr interpolationmode sample-hold
attr source "count(packetPushed) - count(packetPopped) - count(packetRemoved) - count(packetDropped)"
attr title "queue length, max"
scalar Wireless_12_10m.hostC.wlan[0].mac.queue queueLength:timeavg 0
attr interpolationmode sample-hold
attr source "count(packetPushed) - count(packetPopped) - count(packetRemoved) - count(packetDropped)"
attr title "queue length, timeavg"
scalar Wireless_12_10m.hostC.wlan[0].mac.queue packetPushed:count 1
attr interpolationmode none
attr title "packet pushed, count"
scalar Wireless_12_10m.hostC.wlan[0].mac.queue packetPushed:sum(packetBytes) 59
attr interpolationmode none
attr title "packet pushed, sum(packetBytes)"
scalar Wireless_12_10m.hostC.wlan[0].mac.queue packetDropQueueOverflow:count 0
attr interpolationmode none
attr source packetDropReasonIsQueueOverflow(packetDropped)
attr title "packet drops: queue overflow, count"
scalar Wireless_12_10m.hostC.wlan[0].mac.queue packetDropQueueOverflow:sum(packetBytes) 0
attr interpolationmode none
attr source packetDropReasonIsQueueOverflow(packetDropped)
attr title "packet drops: queue overflow, sum(packetBytes)"
scalar Wireless_12_10m.hostC.wlan[0].mac.queue packetRemoved:count 0
attr interpolationmode none
attr title "packets removed, count"
scalar Wireless_12_10m.hostC.wlan[0].mac.queue packetRemoved:sum(packetBytes) 0
attr interpolationmode none
attr title "packets removed, sum(packetBytes)"
scalar Wireless_12_10m.hostC.wlan[0].mac numRetry 0
scalar Wireless_12_10m.hostC.wlan[0].mac numSentWithoutRetry 1
scalar Wireless_12_10m.hostC.wlan[0].mac numGivenUp 0
scalar Wireless_12_10m.hostC.wlan[0].mac numCollision 1
scalar Wireless_12_10m.hostC.wlan[0].mac numSent 1
scalar Wireless_12_10m.hostC.wlan[0].mac numReceived 0
scalar Wireless_12_10m.hostC.wlan[0].mac numSentBroadcast 0
scalar Wireless_12_10m.hostC.wlan[0].mac numReceivedBroadcast 1
scalar Wireless_12_10m.hostC.wlan[0].mac packetDropIncorrectlyReceived:count 1
attr interpolationmode none
attr source packetDropReasonIsIncorrectlyReceived(packetDropped)
attr title "packet drop: incorrectly received, count"
scalar Wireless_12_10m.hostC.wlan[0].mac packetDropIncorrectlyReceived:sum(packetBytes) 59
attr interpolationmode none
attr source packetDropReasonIsIncorrectlyReceived(packetDropped)
attr title "packet drop: incorrectly received, sum(packetBytes)"
scalar Wireless_12_10m.hostC.wlan[0].mac packetDropNotAddressedToUs:count 12
attr interpolationmode none
attr source packetDropReasonIsNotAddressedToUs(packetDropped)
attr title "packet drop: not addressed to us, count"
scalar Wireless_12_10m.hostC.wlan[0].mac packetDropNotAddressedToUs:sum(packetBytes) 708
attr interpolationmode none
attr source packetDropReasonIsNotAddressedToUs(packetDropped)
attr title "packet drop: not addressed to us, sum(packetBytes)"
scalar Wireless_12_10m.hostC.wlan[0].mac packetDropQueueOverflow:count 0
attr interpolationmode none
attr source packetDropReasonIsQueueOverflow(packetDropped)
attr title "packet drop: queue overflow, count"
scalar Wireless_12_10m.hostC.wlan[0].mac packetDropQueueOverflow:sum(packetBytes) 0
attr interpolationmode none
attr source packetDropReasonIsQueueOverflow(packetDropped)
attr title "packet drop: queue overflow, sum(packetBytes)"
scalar Wireless_12_10m.hostC.wlan[0].mac packetDropRetryLimitReached:count 0
attr interpolationmode none
attr source packetDropReasonIsRetryLimitReached(packetDropped)
attr title "packet drop: retry limit reached, count"
scalar Wireless_12_10m.hostC.wlan[0].mac packetDropRetryLimitReached:sum(packetBytes) 0
attr interpolationmode none
attr source packetDropReasonIsRetryLimitReached(packetDropped)
attr title "packet drop: retry limit reached, sum(packetBytes)"
scalar Wireless_12_10m.hostC.wlan[0].mac linkBroken:count 0
attr interpolationmode none
attr source linkBroken
attr title "link break, count"
scalar Wireless_12_10m.hostC.wlan[0].radio radioMode:count 5
attr interpolationmode sample-hold
attr source radioModeChanged
attr title "Radio mode, count"
scalar Wireless_12_10m.hostC.wlan[0].radio receptionState:count 57
attr interpolationmode sample-hold
attr source receptionStateChanged
attr title "Radio reception state, count"
scalar Wireless_12_10m.hostC.wlan[0].radio transmissionState:count 4
attr interpolationmode sample-hold
attr source transmissionStateChanged
attr title "Radio transmission state, count"
statistic Wireless_12_10m.hostC.wlan[0].radio minSnir:histogram
field count 26
field mean 1952.7285147809
field stddev 1640.7147094106
field min 1.4977443629148
field max 7434.2518517284
field sum 50770.941384303
field sqrsum 166440483.90531
attr source minimumSnir(packetSentToUpper)
attr title "Min SNIR, histogram"
bin	-inf	0
bin	0	2
bin	200	0
bin	400	2
bin	600	3
bin	800	2
bin	1000	0
bin	1200	0
bin	1400	0
bin	1600	0
bin	1800	13
bin	2000	0
bin	2200	0
bin	2400	1
bin	2600	0
bin	2800	0
bin	3000	0
bin	3200	0
bin	3400	0
bin	3600	0
bin	3800	0
bin	4000	0
bin	4200	0
bin	4400	0
bin	4600	0
bin	4800	2
bin	5000	0
bin	5200	0
bin	5400	0
bin	5600	0
bin	5800	0
bin	6000	0
bin	6200	0
bin	6400	0
bin	6600	0
bin	6800	0
bin	7000	0
bin	7200	0
bin	7400	1
bin	7600	0
bin	7800	0
bin	8000	0
bin	8200	0
bin	8400	0
bin	8600	0
bin	8800	0
bin	9000	0
bin	9200	0
bin	9400	0
statistic Wireless_12_10m.hostC.wlan[0].radio packetErrorRate:histogram
field count 26
field mean 0.037657328888607
field stddev 0.19201545483215
field min 0
field max 0.97909055110064
field sum 0.97909055110379
field sqrsum 0.95861830725455
attr source packetErrorRate(packetSentToUpper)
attr title "Packet error rate, histogram"
bin	-inf	0
bin	0	25
bin	0.02	0
bin	0.04	0
bin	0.06	0
bin	0.08	0
bin	0.1	0
bin	0.12	0
bin	0.14	0
bin	0.16	0
bin	0.18	0
bin	0.2	0
bin	0.22	0
bin	0.24	0
bin	0.26	0
bin	0.28	0
bin	0.3	0
bin	0.32	0
bin	0.34	0
bin	0.36	0
bin	0.38	0
bin	0.4	0
bin	0.42	0
bin	0.44	0
bin	0.46	0
bin	0.48	0
bin	0.5	0
bin	0.52	0
bin	0.54	0
bin	0.56	0
bin	0.58	0
bin	0.6	0
bin	0.62	0
bin	0.64	0
bin	0.66	0
bin	0.68	0
bin	0.7	0
bin	0.72	0
bin	0.74	0
bin	0.76	0
bin	0.78	0
bin	0.8	0
bin	0.82	0
bin	0.84	0
bin	0.86	0
bin	0.88	0
bin	0.9	0
bin	0.92	0
bin	0.94	0
bin	0.96	1
bin	0.98	0
bin	1	0
bin	1.02	0
bin	1.04	0
bin	1.06	0
bin	1.08	0
bin	1.1	0
bin	1.12	0
bin	1.14	0
bin	1.16	0
bin	1.18	0
bin	1.2	0
bin	1.22	0
bin	1.24	0
statistic Wireless_12_10m.hostC.wlan[0].radio bitErrorRate:histogram
field count 26
field mean 0.00027652370027241
field stddev 0.0014099997436587
field min 0
field max 0.0071896162070768
field sum 0.0071896162070827
field sqrsum 5.1690581205062e-05
attr source bitErrorRate(packetSentToUpper)
attr title "Bit error rate, histogram"
bin	-inf	0
bin	0	25
bin	0.0001	0
bin	0.0002	0
bin	0.0003	0
bin	0.0004	0
bin	0.0005	0
bin	0.0006	0
bin	0.0007	0
bin	0.0008	0
bin	0.0009	0
bin	0.001	0
bin	0.0011	0
bin	0.0012	0
bin	0.0013	0
bin	0.0014	0
bin	0.0015	0
bin	0.0016	0
bin	0.0017	0
bin	0.0018	0
bin	0.0019	0
bin	0.002	0
bin	0.0021	0
bin	0.0022	0
bin	0.0023	0
bin	0.0024	0
bin	0.0025	0
bin	0.0026	0
bin	0.0027	0
bin	0.0028	0
bin	0.0029	0
bin	0.003	0
bin	0.0031	0
bin	0.0032	0
bin	0.0033	0
bin	0.0034	0
bin	0.0035	0
bin	0.0036	0
bin	0.0037	0
bin	0.0038	0
bin	0.0039	0
bin	0.004	0
bin	0.0041	0
bin	0.0042	0
bin	0.0043	0
bin	0.0044	0
bin	0.0045	0
bin	0.0046	0
bin	0.0047	0
bin	0.0048	0
bin	0.0049	0
bin	0.005	0
bin	0.0051	0
bin	0.0052	0
bin	0.0053	0
bin	0.0054	0
bin	0.0055	0
bin	0.0056	0
bin	0.0057	0
bin	0.0058	0
bin	0.0059	0
bin	0.006	0
bin	0.0061	0
bin	0.0062	0
bin	0.0063	0
bin	0.0064	0
bin	0.0065	0
bin	0.0066	0
bin	0.0067	0
bin	0.0068	0
bin	0.0069	0
bin	0.007	0
bin	0.0071	1
bin	0.0072	0
bin	0.0073	0
bin	0.0074	0
bin	0.0075	0
bin	0.0076	0
bin	0.0077	0
bin	0.0078	0
bin	0.0079	0
bin	0.008	0
bin	0.0081	0
bin	0.0082	0
bin	0.0083	0
bin	0.0084	0
bin	0.0085	0
bin	0.0086	0
bin	0.0087	0
bin	0.0088	0
bin	0.0089	0
bin	0.009	0
statistic Wireless_12_10m.hostC.wlan[0].radio symbolErrorRate:histogram
field count 26
field mean 0.00027652370027241
field stddev 0.0014099997436587
field min 0
field max 0.0071896162070768
field sum 0.0071896162070827
field sqrsum 5.1690581205062e-05
attr source symbolErrorRate(packetSentToUpper)
attr title "Symbol error rate, histogram"
bin	-inf	0
bin	0	25
bin	0.0001	0
bin	0.0002	0
bin	0.0003	0
bin	0.0004	0
bin	0.0005	0
bin	0.0006	0
bin	0.0007	0
bin	0.0008	0
bin	0.0009	0
bin	0.001	0
bin	0.0011	0
bin	0.0012	0
bin	0.0013	0
bin	0.0014	0
bin	0.0015	0
bin	0.0016	0
bin	0.0017	0
bin	0.0018	0
bin	0.0019	0
bin	0.002	0
bin	0.0021	0
bin	0.0022	0
bin	0.0023	0
bin	0.0024	0
bin	0.0025	0
bin	0.0026	0
bin	0.0027	0
bin	0.0028	0
bin	0.0029	0
bin	0.003	0
bin	0.0031	0
bin	0.0032	0
bin	0.0033	0
bin	0.0034	0
bin	0.0035	0
bin	0.0036	0
bin	0.0037	0
bin	0.0038	0
bin	0.0039	0
bin	0.004	0
bin	0.0041	0
bin	0.0042	0
bin	0.0043	0
bin	0.0044	0
bin	0.0045	0
bin	0.0046	0
bin	0.0047	0
bin	0.0048	0
bin	0.0049	0
bin	0.005	0
bin	0.0051	0
bin	0.0052	0
bin	0.0053	0
bin	0.0054	0
bin	0.0055	0
bin	0.0056	0
bin	0.0057	0
bin	0.0058	0
bin	0.0059	0
bin	0.006	0
bin	0.0061	0
bin	0.0062	0
bin	0.0063	0
bin	0.0064	0
bin	0.0065	0
bin	0.0066	0
bin	0.0067	0
bin	0.0068	0
bin	0.0069	0
bin	0.007	0
bin	0.0071	1
bin	0.0072	0
bin	0.0073	0
bin	0.0074	0
bin	0.0075	0
bin	0.0076	0
bin	0.0077	0
bin	0.0078	0
bin	0.0079	0
bin	0.008	0
bin	0.0081	0
bin	0.0082	0
bin	0.0083	0
bin	0.0084	0
bin	0.0085	0
bin	0.0086	0
bin	0.0087	0
bin	0.0088	0
bin	0.0089	0
bin	0.009	0
scalar Wireless_12_10m.hostC.ipv4.ip packetDropAddressResolutionFailed:count 0
attr interpolationmode none
attr source packetDropReasonIsAddressResolutionFailed(packetDropped)
attr title "packet drop: address resolution failed, count"
scalar Wireless_12_10m.hostC.ipv4.ip packetDropAddressResolutionFailed:sum(packetBytes) 0
attr interpolationmode none
attr source packetDropReasonIsAddressResolutionFailed(packetDropped)
attr title "packet drop: address resolution failed, sum(packetBytes)"
scalar Wireless_12_10m.hostC.ipv4.ip packetDropHopLimitReached:count 0
attr interpolationmode none
attr source packetDropReasonIsHopLimitReached(packetDropped)
attr title "packet drop: hop limit reached, count"
scalar Wireless_12_10m.hostC.ipv4.ip packetDropHopLimitReached:sum(packetBytes) 0
attr interpolationmode none
attr source packetDropReasonIsHopLimitReached(packetDropped)
attr title "packet drop: hop limit reached, sum(packetBytes)"
scalar Wireless_12_10m.hostC.ipv4.ip packetDropForwardingDisabled:count 0
attr interpolationmode none
attr source packetDropReasonIsForwardingDisabled(packetDropped)
attr title "packet drop: forwarding disabled, count"
scalar Wireless_12_10m.hostC.ipv4.ip packetDropForwardingDisabled:sum(packetBytes) 0
attr interpolationmode none
attr source packetDropReasonIsForwardingDisabled(packetDropped)
attr title "packet drop: forwarding disabled, sum(packetBytes)"
scalar Wireless_12_10m.hostC.ipv4.ip packetDropNoInterfaceFound:count 0
attr interpolationmode none
attr source packetDropReasonIsNoInterfaceFound(packetDropped)
attr title "packet drop: no interface found, count"
scalar Wireless_12_10m.hostC.ipv4.ip packetDropNoInterfaceFound:sum(packetBytes) 0
attr interpolationmode none
attr source packetDropReasonIsNoInterfaceFound(packetDropped)
attr title "packet drop: no interface found, sum(packetBytes)"
scalar Wireless_12_10m.hostC.ipv4.ip packetDropNoRouteFound:count 0
attr interpolationmode none
attr source packetDropReasonIsNoRouteFound(packetDropped)
attr title "packet drop: no route found, count"
scalar Wireless_12_10m.hostC.ipv4.ip packetDropNoRouteFound:sum(packetBytes) 0
attr interpolationmode none
attr source packetDropReasonIsNoRouteFound(packetDropped)
attr title "packet drop: no route found, sum(packetBytes)"
scalar Wireless_12_10m.hostC.ipv4.ip packetDropUndefined:count 0
attr interpolationmode none
attr source packetDropReasonIsUndefined(packetDropped)
attr title "packet drop: undefined, count"
scalar Wireless_12_10m.hostC.ipv4.ip packetDropUndefined:sum(packetBytes) 0
attr interpolationmode none
attr source packetDropReasonIsUndefined(packetDropped)
attr title "packet drop: undefined, sum(packetBytes)"
scalar Wireless_12_10m.hostC.udp packetReceived:count 1
attr interpolationmode none
attr source packetReceived
attr title "packets received, count"
scalar Wireless_12_10m.hostC.udp packetReceived:sum(packetBytes) 12
attr interpolationmode none
attr source packetReceived
attr title "packets received, sum(packetBytes)"
scalar Wireless_12_10m.hostC.udp packetSent:count 1
attr interpolationmode none
attr source packetSent
attr title "packets sent, count"
scalar Wireless_12_10m.hostC.udp packetSent:sum(packetBytes) 12
attr interpolationmode none
attr source packetSent
attr title "packets sent, sum(packetBytes)"
scalar Wireless_12_10m.hostC.udp passedUpPk:count 1
attr interpolationmode none
attr source packetSentToUpper
attr title "packets passed up, count"
scalar Wireless_12_10m.hostC.udp droppedPkWrongPort:count 0
attr interpolationmode none
attr source packetDropReasonIsNoPortFound(packetDropped)
attr title "packets dropped (wrong port), count"
scalar Wireless_12_10m.hostC.udp droppedPkBadChecksum:count 0
attr interpolationmode none
attr source packetDropReasonIsIncorrectlyReceived(packetDropped)
attr title "packets dropped (checksum error), count"
scalar Wireless_12_10m.hostD.lo[0].lo rcvdPkFromHl:count 0
attr interpolationmode none
attr source packetReceivedFromUpper
attr title "packets received from higher layer, count"
scalar Wireless_12_10m.hostD.lo[0].lo rcvdPkFromHl:sum(packetBytes) 0
attr interpolationmode none
attr source packetReceivedFromUpper
attr title "packets received from higher layer, sum(packetBytes)"
scalar Wireless_12_10m.hostD.lo[0].lo passedUpPk:count 0
attr interpolationmode none
attr source packetSentToUpper
attr title "packets passed to higher layer, count"
scalar Wireless_12_10m.hostD.lo[0].lo passedUpPk:sum(packetBytes) 0
attr interpolationmode none
attr source packetSentToUpper
attr title "packets passed to higher layer, sum(packetBytes)"
scalar Wireless_12_10m.hostD.wlan[0].mac.queue packetPopped:count 1
attr interpolationmode none
attr title "packet popped, count"
scalar Wireless_12_10m.hostD.wlan[0].mac.queue packetPopped:sum(packetBytes) 59
attr interpolationmode none
attr title "packet popped, sum(packetBytes)"
statistic Wireless_12_10m.hostD.wlan[0].mac.queue queueingTime:histogram
field count 1
field mean 0
field stddev -nan
field min 0
field max 0
field sum 0
field sqrsum 0
attr interpolationmode none
attr source queueingTime(packetPopped)
attr title "queueing times, histogram"
attr unit s
bin	-inf	0
bin	-0.5	0
bin	-0.48	0
bin	-0.46	0
bin	-0.44	0
bin	-0.42	0
bin	-0.4	0
bin	-0.38	0
bin	-0.36	0
bin	-0.34	0
bin	-0.32	0
bin	-0.3	0
bin	-0.28	0
bin	-0.26	0
bin	-0.24	0
bin	-0.22	0
bin	-0.2	0
bin	-0.18	0
bin	-0.16	0
bin	-0.14	0
bin	-0.12	0
bin	-0.1	0
bin	-0.08	0
bin	-0.06	0
bin	-0.04	0
bin	-0.02	0
bin	0	1
bin	0.02	0
bin	0.04	0
bin	0.06	0
bin	0.08	0
bin	0.1	0
bin	0.12	0
bin	0.14	0
bin	0.16	0
bin	0.18	0
bin	0.2	0
bin	0.22	0
bin	0.24	0
bin	0.26	0
bin	0.28	0
bin	0.3	0
bin	0.32	0
bin	0.34	0
bin	0.36	0
bin	0.38	0
bin	0.4	0
bin	0.42	0
bin	0.44	0
bin	0.46	0
bin	0.48	0
bin	0.5	0
scalar Wireless_12_10m.hostD.wlan[0].mac.queue queueLength:max 1
attr interpolationmode sample-hold
attr source "count(packetPushed) - count(packetPopped) - count(packetRemoved) - count(packetDropped)"
attr title "queue length, max"
scalar Wireless_12_10m.hostD.wlan[0].mac.queue queueLength:timeavg 0
attr interpolationmode sample-hold
attr source "count(packetPushed) - count(packetPopped) - count(packetRemoved) - count(packetDropped)"
attr title "queue length, timeavg"
scalar Wireless_12_10m.hostD.wlan[0].mac.queue packetPushed:count 1
attr interpolationmode none
attr title "packet pushed, count"
scalar Wireless_12_10m.hostD.wlan[0].mac.queue packetPushed:sum(packetBytes) 59
attr interpolationmode none
attr title "packet pushed, sum(packetBytes)"
scalar Wireless_12_10m.hostD.wlan[0].mac.queue packetDropQueueOverflow:count 0
attr interpolationmode none
attr source packetDropReasonIsQueueOverflow(packetDropped)
attr title "packet drops: queue overflow, count"
scalar Wireless_12_10m.hostD.wlan[0].mac.queue packetDropQueueOverflow:sum(packetBytes) 0
attr interpolationmode none
attr source packetDropReasonIsQueueOverflow(packetDropped)
attr title "packet drops: queue overflow, sum(packetBytes)"
scalar Wireless_12_10m.hostD.wlan[0].mac.queue packetRemoved:count 0
attr interpolationmode none
attr title "packets removed, count"
scalar Wireless_12_10m.hostD.wlan[0].mac.queue packetRemoved:sum(packetBytes) 0
attr interpolationmode none
attr title "packets removed, sum(packetBytes)"
scalar Wireless_12_10m.hostD.wlan[0].mac numRetry 1
scalar Wireless_12_10m.hostD.wlan[0].mac numSentWithoutRetry 0
scalar Wireless_12_10m.hostD.wlan[0].mac numGivenUp 0
scalar Wireless_12_10m.hostD.wlan[0].mac numCollision 1
scalar Wireless_12_10m.hostD.wlan[0].mac numSent 1
scalar Wireless_12_10m.hostD.wlan[0].mac numReceived 0
scalar Wireless_12_10m.hostD.wlan[0].mac numSentBroadcast 0
scalar Wireless_12_10m.hostD.wlan[0].mac numReceivedBroadcast 1
scalar Wireless_12_10m.hostD.wlan[0].mac packetDropIncorrectlyReceived:count 1
attr interpolationmode none
attr source packetDropReasonIsIncorrectlyReceived(packetDropped)
attr title "packet drop: incorrectly received, count"
scalar Wireless_12_10m.hostD.wlan[0].mac packetDropIncorrectlyReceived:sum(packetBytes) 59
attr interpolationmode none
attr source packetDropReasonIsIncorrectlyReceived(packetDropped)
attr title "packet drop: incorrectly received, sum(packetBytes)"
scalar Wireless_12_10m.hostD.wlan[0].mac packetDropNotAddressedToUs:count 11
attr interpolationmode none
attr source packetDropReasonIsNotAddressedToUs(packetDropped)
attr title "packet drop: not addressed to us, count"
scalar Wireless_12_10m.hostD.wlan[0].mac packetDropNotAddressedToUs:sum(packetBytes) 649
attr interpolationmode none
attr source packetDropReasonIsNotAddressedToUs(packetDropped)
attr title "packet drop: not addressed to us, sum(packetBytes)"
scalar Wireless_12_10m.hostD.wlan[0].mac packetDropQueueOverflow:count 0
attr interpolationmode none
attr source packetDropReasonIsQueueOverflow(packetDropped)
attr title "packet drop: queue overflow, count"
scalar Wireless_12_10m.hostD.wlan[0].mac packetDropQueueOverflow:sum(packetBytes) 0
attr interpolationmode none
attr source packetDropReasonIsQueueOverflow(packetDropped)
attr title "packet drop: queue overflow, sum(packetBytes)"
scalar Wireless_12_10m.hostD.wlan[0].mac packetDropRetryLimitReached:count 0
attr interpolationmode none
attr source packetDropReasonIsRetryLimitReached(packetDropped)
attr title "packet drop: retry limit reached, count"
scalar Wireless_12_10m.hostD.wlan[0].mac packetDropRetryLimitReached:sum(packetBytes) 0
attr interpolationmode none
attr source packetDropReasonIsRetryLimitReached(packetDropped)
attr title "packet drop: retry limit reached, sum(packetBytes)"
scalar Wireless_12_10m.hostD.wlan[0].mac linkBroken:count 0
attr interpolationmode none
attr source linkBroken
attr title "link break, count"
scalar Wireless_12_10m.hostD.wlan[0].radio radioMode:count 7
attr interpolationmode sample-hold
attr source radioModeChanged
attr title "Radio mode, count"
scalar Wireless_12_10m.hostD.wlan[0].radio receptionState:count 57
attr interpolationmode sample-hold
attr source receptionStateChanged
attr title "Radio reception state, count"
scalar Wireless_12_10m.hostD.wlan[0].radio transmissionState:count 8
attr interpolationmode sample-hold
attr source transmissionStateChanged
attr title "Radio transmission state, count"
statistic Wireless_12_10m.hostD.wlan[0].radio minSnir:histogram
field count 25
field mean 1782.3681790318
field stddev 1370.6016344337
field min 1.9979939837366
field max 7434.2518517284
field sum 44559.204475794
field sqrsum 124506080.30812
attr source minimumSnir(packetSentToUpper)
attr title "Min SNIR, histogram"
bin	-inf	0
bin	0	1
bin	200	0
bin	400	4
bin	600	1
bin	800	2
bin	1000	0
bin	1200	0
bin	1400	0
bin	1600	0
bin	1800	15
bin	2000	0
bin	2200	0
bin	2400	1
bin	2600	0
bin	2800	0
bin	3000	0
bin	3200	0
bin	3400	0
bin	3600	0
bin	3800	0
bin	4000	0
bin	4200	0
bin	4400	0
bin	4600	0
bin	4800	0
bin	5000	0
bin	5200	0
bin	5400	0
bin	5600	0
bin	5800	0
bin	6000	0
bin	6200	0
bin	6400	0
bin	6600	0
bin	6800	0
bin	7000	0
bin	7200	0
bin	7400	1
bin	7600	0
bin	7800	0
bin	8000	0
bin	8200	0
bin	8400	0
bin	8600	0
bin	8800	0
bin	9000	0
bin	9200	0
bin	9400	0
statistic Wireless_12_10m.hostD.wlan[0].radio packetErrorRate:histogram
field count 25
field mean 0.028661578441701
field stddev 0.14330789220851
field min 0
field max 0.71653946104253
field sum 0.71653946104253
field sqrsum 0.51342879923112
attr source packetErrorRate(packetSentToUpper)
attr title "Packet error rate, histogram"
bin	-inf	0
bin	0	24
bin	0.01	0
bin	0.02	0
bin	0.03	0
bin	0.04	0
bin	0.05	0
bin	0.06	0
bin	0.07	0
bin	0.08	0
bin	0.09	0
bin	0.1	0
bin	0.11	0
bin	0.12	0
bin	0.13	0
bin	0.14	0
bin	0.15	0
bin	0.16	0
bin	0.17	0
bin	0.18	0
bin	0.19	0
bin	0.2	0
bin	0.21	0
bin	0.22	0
bin	0.23	0
bin	0.24	0
bin	0.25	0
bin	0.26	0
bin	0.27	0
bin	0.28	0
bin	0.29	0
bin	0.3	0
bin	0.31	0
bin	0.32	0
bin	0.33	0
bin	0.34	0
bin	0.35	0
bin	0.36	0
bin	0.37	0
bin	0.38	0
bin	0.39	0
bin	0.4	0
bin	0.41	0
bin	0.42	0
bin	0.43	0
bin	0.44	0
bin	0.45	0
bin	0.46	0
bin	0.47	0
bin	0.48	0
bin	0.49	0
bin	0.5	0
bin	0.51	0
bin	0.52	0
bin	0.53	0
bin	0.54	0
bin	0.55	0
bin	0.56	0
bin	0.57	0
bin	0.58	0
bin	0.59	0
bin	0.6	0
bin	0.61	0
bin	0.62	0
bin	0.63	0
bin	0.64	0
bin	0.65	0
bin	0.66	0
bin	0.67	0
bin	0.68	0
bin	0.69	0
bin	0.7	0
bin	0.71	1
bin	0.72	0
bin	0.73	0
bin	0.74	0
bin	0.75	0
bin	0.76	0
bin	0.77	0
bin	0.78	0
bin	0.79	0
bin	0.8	0
bin	0.81	0
bin	0.82	0
bin	0.83	0
bin	0.84	0
bin	0.85	0
bin	0.86	0
bin	0.87	0
bin	0.88	0
bin	0.89	0
bin	0.9	0
statistic Wireless_12_10m.hostD.wlan[0].radio bitErrorRate:histogram
field count 25
field mean 9.3970219770407e-05
field stddev 0.00046985109885204
field min 0
field max 0.0023492554942602
field sum 0.0023492554942602
field sqrsum 5.5190013773117e-06
attr source bitErrorRate(packetSentToUpper)
attr title "Bit error rate, histogram"
bin	-inf	0
bin	0	24
bin	5e-05	0
bin	0.0001	0
bin	0.00015	0
bin	0.0002	0
bin	0.00025	0
bin	0.0003	0
bin	0.00035	0
bin	0.0004	0
bin	0.00045	0
bin	0.0005	0
bin	0.00055	0
bin	0.0006	0
bin	0.00065	0
bin	0.0007	0
bin	0.00075	0
bin	0.0008	0
bin	0.00085	0
bin	0.0009	0
bin	0.00095	0
bin	0.001	0
bin	0.00105	0
bin	0.0011	0
bin	0.00115	0
bin	0.0012	0
bin	0.00125	0
bin	0.0013	0
bin	0.00135	0
bin	0.0014	0
bin	0.00145	0
bin	0.0015	0
bin	0.00155	0
bin	0.0016	0
bin	0.00165	0
bin	0.0017	0
bin	0.00175	0
bin	0.0018	0
bin	0.00185	0
bin	0.0019	0
bin	0.00195	0
bin	0.002	0
bin	0.00205	0
bin	0.0021	0
bin	0.00215	0
bin	0.0022	0
bin	0.00225	0
bin	0.0023	1
bin	0.00235	0
bin	0.0024	0
bin	0.00245	0
bin	0.0025	0
bin	0.00255	0
bin	0.0026	0
bin	0.00265	0
bin	0.0027	0
bin	0.00275	0
bin	0.0028	0
bin	0.00285	0
bin	0.0029	0
bin	0.00295	0
statistic Wireless_12_10m.hostD.wlan[0].radio symbolErrorRate:histogram
field count 25
field mean 9.3970219770407e-05
field stddev 0.00046985109885204
field min 0
field max 0.0023492554942602
field sum 0.0023492554942602
field sqrsum 5.5190013773117e-06
attr source symbolErrorRate(packetSentToUpper)
attr title "Symbol error rate, histogram"
bin	-inf	0
bin	0	24
bin	5e-05	0
bin	0.0001	0
bin	0.00015	0
bin	0.0002	0
bin	0.00025	0
bin	0.0003	0
bin	0.00035	0
bin	0.0004	0
bin	0.00045	0
bin	0.0005	0
bin	0.00055	0
bin	0.0006	0
bin	0.00065	0
bin	0.0007	0
bin	0.00075	0
bin	0.0008	0
bin	0.00085	0
bin	0.0009	0
bin	0.00095	0
bin	0.001	0
bin	0.00105	0
bin	0.0011	0
bin	0.00115	0
bin	0.0012	0
bin	0.00125	0
bin	0.0013	0
bin	0.00135	0
bin	0.0014	0
bin	0.00145	0
bin	0.0015	0
bin	0.00155	0
bin	0.0016	0
bin	0.00165	0
bin	0.0017	0
bin	0.00175	0
bin	0.0018	0
bin	0.00185	0
bin	0.0019	0
bin	0.00195	0
bin	0.002	0
bin	0.00205	0
bin	0.0021	0
bin	0.00215	0
bin	0.0022	0
bin	0.00225	0
bin	0.0023	1
bin	0.00235	0
bin	0.0024	0
bin	0.00245	0
bin	0.0025	0
bin	0.00255	0
bin	0.0026	0
bin	0.00265	0
bin	0.0027	0
bin	0.00275	0
bin	0.0028	0
bin	0.00285	0
bin	0.0029	0
bin	0.00295	0
scalar Wireless_12_10m.hostD.ipv4.ip packetDropAddressResolutionFailed:count 0
attr interpolationmode none
attr source packetDropReasonIsAddressResolutionFailed(packetDropped)
attr title "packet drop: address resolution failed, count"
scalar Wireless_12_10m.hostD.ipv4.ip packetDropAddressResolutionFailed:sum(packetBytes) 0
attr interpolationmode none
attr source packetDropReasonIsAddressResolutionFailed(packetDropped)
attr title "packet drop: address resolution failed, sum(packetBytes)"
scalar Wireless_12_10m.hostD.ipv4.ip packetDropHopLimitReached:count 0
attr interpolationmode none
attr source packetDropReasonIsHopLimitReached(packetDropped)
attr title "packet drop: hop limit reached, count"
scalar Wireless_12_10m.hostD.ipv4.ip packetDropHopLimitReached:sum(packetBytes) 0
attr interpolationmode none
attr source packetDropReasonIsHopLimitReached(packetDropped)
attr title "packet drop: hop limit reached, sum(packetBytes)"
scalar Wireless_12_10m.hostD.ipv4.ip packetDropForwardingDisabled:count 0
attr interpolationmode none
attr source packetDropReasonIsForwardingDisabled(packetDropped)
attr title "packet drop: forwarding disabled, count"
scalar Wireless_12_10m.hostD.ipv4.ip packetDropForwardingDisabled:sum(packetBytes) 0
attr interpolationmode none
attr source packetDropReasonIsForwardingDisabled(packetDropped)
attr title "packet drop: forwarding disabled, sum(packetBytes)"
scalar Wireless_12_10m.hostD.ipv4.ip packetDropNoInterfaceFound:count 0
attr interpolationmode none
attr source packetDropReasonIsNoInterfaceFound(packetDropped)
attr title "packet drop: no interface found, count"
scalar Wireless_12_10m.hostD.ipv4.ip packetDropNoInterfaceFound:sum(packetBytes) 0
attr interpolationmode none
attr source packetDropReasonIsNoInterfaceFound(packetDropped)
attr title "packet drop: no interface found, sum(packetBytes)"
scalar Wireless_12_10m.hostD.ipv4.ip packetDropNoRouteFound:count 0
attr interpolationmode none
attr source packetDropReasonIsNoRouteFound(packetDropped)
attr title "packet drop: no route found, count"
scalar Wireless_12_10m.hostD.ipv4.ip packetDropNoRouteFound:sum(packetBytes) 0
attr interpolationmode none
attr source packetDropReasonIsNoRouteFound(packetDropped)
attr title "packet drop: no route found, sum(packetBytes)"
scalar Wireless_12_10m.hostD.ipv4.ip packetDropUndefined:count 0
attr interpolationmode none
attr source packetDropReasonIsUndefined(packetDropped)
attr title "packet drop: undefined, count"
scalar Wireless_12_10m.hostD.ipv4.ip packetDropUndefined:sum(packetBytes) 0
attr interpolationmode none
attr source packetDropReasonIsUndefined(packetDropped)
attr title "packet drop: undefined, sum(packetBytes)"
scalar Wireless_12_10m.hostD.udp packetReceived:count 1
attr interpolationmode none
attr source packetReceived
attr title "packets received, count"
scalar Wireless_12_10m.hostD.udp packetReceived:sum(packetBytes) 12
attr interpolationmode none
attr source packetReceived
attr title "packets received, sum(packetBytes)"
scalar Wireless_12_10m.hostD.udp packetSent:count 1
attr interpolationmode none
attr source packetSent
attr title "packets sent, count"
scalar Wireless_12_10m.hostD.udp packetSent:sum(packetBytes) 12
attr interpolationmode none
attr source packetSent
attr title "packets sent, sum(packetBytes)"
scalar Wireless_12_10m.hostD.udp passedUpPk:count 1
attr interpolationmode none
attr source packetSentToUpper
attr title "packets passed up, count"
scalar Wireless_12_10m.hostD.udp droppedPkWrongPort:count 0
attr interpolationmode none
attr source packetDropReasonIsNoPortFound(packetDropped)
attr title "packets dropped (wrong port), count"
scalar Wireless_12_10m.hostD.udp droppedPkBadChecksum:count 0
attr interpolationmode none
attr source packetDropReasonIsIncorrectlyReceived(packetDropped)
attr title "packets dropped (checksum error), count"
scalar Wireless_12_10m.hostE.lo[0].lo rcvdPkFromHl:count 0
attr interpolationmode none
attr source packetReceivedFromUpper
attr title "packets received from higher layer, count"
scalar Wireless_12_10m.hostE.lo[0].lo rcvdPkFromHl:sum(packetBytes) 0
attr interpolationmode none
attr source packetReceivedFromUpper
attr title "packets received from higher layer, sum(packetBytes)"
scalar Wireless_12_10m.hostE.lo[0].lo passedUpPk:count 0
attr interpolationmode none
attr source packetSentToUpper
attr title "packets passed to higher layer, count"
scalar Wireless_12_10m.hostE.lo[0].lo passedUpPk:sum(packetBytes) 0
attr interpolationmode none
attr source packetSentToUpper
attr title "packets passed to higher layer, sum(packetBytes)"
scalar Wireless_12_10m.hostE.wlan[0].mac.queue packetPopped:count 1
attr interpolationmode none
attr title "packet popped, count"
scalar Wireless_12_10m.hostE.wlan[0].mac.queue packetPopped:sum(packetBytes) 59
attr interpolationmode none
attr title "packet popped, sum(packetBytes)"
statistic Wireless_12_10m.hostE.wlan[0].mac.queue queueingTime:histogram
field count 1
field mean 0
field stddev -nan
field min 0
field max 0
field sum 0
field sqrsum 0
attr interpolationmode none
attr source queueingTime(packetPopped)
attr title "queueing times, histogram"
attr unit s
bin	-inf	0
bin	-0.5	0
bin	-0.48	0
bin	-0.46	0
bin	-0.44	0
bin	-0.42	0
bin	-0.4	0
bin	-0.38	0
bin	-0.36	0
bin	-0.34	0
bin	-0.32	0
bin	-0.3	0
bin	-0.28	0
bin	-0.26	0
bin	-0.24	0
bin	-0.22	0
bin	-0.2	0
bin	-0.18	0
bin	-0.16	0
bin	-0.14	0
bin	-0.12	0
bin	-0.1	0
bin	-0.08	0
bin	-0.06	0
bin	-0.04	0
bin	-0.02	0
bin	0	1
bin	0.02	0
bin	0.04	0
bin	0.06	0
bin	0.08	0
bin	0.1	0
bin	0.12	0
bin	0.14	0
bin	0.16	0
bin	0.18	0
bin	0.2	0
bin	0.22	0
bin	0.24	0
bin	0.26	0
bin	0.28	0
bin	0.3	0
bin	0.32	0
bin	0.34	0
bin	0.36	0
bin	0.38	0
bin	0.4	0
bin	0.42	0
bin	0.44	0
bin	0.46	0
bin	0.48	0
bin	0.5	0
scalar Wireless_12_10m.hostE.wlan[0].mac.queue queueLength:max 1
attr interpolationmode sample-hold
attr source "count(packetPushed) - count(packetPopped) - count(packetRemoved) - count(packetDropped)"
attr title "queue length, max"
scalar Wireless_12_10m.hostE.wlan[0].mac.queue queueLength:timeavg 0
attr interpolationmode sample-hold
attr source "count(packetPushed) - count(packetPopped) - count(packetRemoved) - count(packetDropped)"
attr title "queue length, timeavg"
scalar Wireless_12_10m.hostE.wlan[0].mac.queue packetPushed:count 1
attr interpolationmode none
attr title "packet pushed, count"
scalar Wireless_12_10m.hostE.wlan[0].mac.queue packetPushed:sum(packetBytes) 59
attr interpolationmode none
attr title "packet pushed, sum(packetBytes)"
scalar Wireless_12_10m.hostE.wlan[0].mac.queue packetDropQueueOverflow:count 0
attr interpolationmode none
attr source packetDropReasonIsQueueOverflow(packetDropped)
attr title "packet drops: queue overflow, count"
scalar Wireless_12_10m.hostE.wlan[0].mac.queue packetDropQueueOverflow:sum(packetBytes) 0
attr interpolationmode none
attr source packetDropReasonIsQueueOverflow(packetDropped)
attr title "packet drops: queue overflow, sum(packetBytes)"
scalar Wireless_12_10m.hostE.wlan[0].mac.queue packetRemoved:count 0
attr interpolationmode none
attr title "packets removed, count"
scalar Wireless_12_10m.hostE.wlan[0].mac.queue packetRemoved:sum(packetBytes) 0
attr interpolationmode none
attr title "packets removed, sum(packetBytes)"
scalar Wireless_12_10m.hostE.wlan[0].mac numRetry 1
scalar Wireless_12_10m.hostE.wlan[0].mac numSentWithoutRetry 0
scalar Wireless_12_10m.hostE.wlan[0].mac numGivenUp 0
scalar Wireless_12_10m.hostE.wlan[0].mac numCollision 1
scalar Wireless_12_10m.hostE.wlan[0].mac numSent 1
scalar Wireless_12_10m.hostE.wlan[0].mac numReceived 0
scalar Wireless_12_10m.hostE.wlan[0].mac numSentBroadcast 0
scalar Wireless_12_10m.hostE.wlan[0].mac numReceivedBroadcast 1
scalar Wireless_12_10m.hostE.wlan[0].mac packetDropIncorrectlyReceived:count 1
attr interpolationmode none
attr source packetDropReasonIsIncorrectlyReceived(packetDropped)
attr title "packet drop: incorrectly received, count"
scalar Wireless_12_10m.hostE.wlan[0].mac packetDropIncorrectlyReceived:sum(packetBytes) 59
attr interpolationmode none
attr source packetDropReasonIsIncorrectlyReceived(packetDropped)
attr title "packet drop: incorrectly received, sum(packetBytes)"
scalar Wireless_12_10m.hostE.wlan[0].mac packetDropNotAddressedToUs:count 11
attr interpolationmode none
attr source packetDropReasonIsNotAddressedToUs(packetDropped)
attr title "packet drop: not addressed to us, count"
scalar Wireless_12_10m.hostE.wlan[0].mac packetDropNotAddressedToUs:sum(packetBytes) 649
attr interpolationmode none
attr source packetDropReasonIsNotAddressedToUs(packetDropped)
attr title "packet drop: not addressed to us, sum(packetBytes)"
scalar Wireless_12_10m.hostE.wlan[0].mac packetDropQueueOverflow:count 0
attr interpolationmode none
attr source packetDropReasonIsQueueOverflow(packetDropped)
attr title "packet drop: queue overflow, count"
scalar Wireless_12_10m.hostE.wlan[0].mac packetDropQueueOverflow:sum(packetBytes) 0
attr interpolationmode none
attr source packetDropReasonIsQueueOverflow(packetDropped)
attr title "packet drop: queue overflow, sum(packetBytes)"
scalar Wireless_12_10m.hostE.wlan[0].mac packetDropRetryLimitReached:count 0
attr interpolationmode none
attr source packetDropReasonIsRetryLimitReached(packetDropped)
attr title "packet drop: retry limit reached, count"
scalar Wireless_12_10m.hostE.wlan[0].mac packetDropRetryLimitReached:sum(packetBytes) 0
attr interpolationmode none
attr source packetDropReasonIsRetryLimitReached(packetDropped)
attr title "packet drop: retry limit reached, sum(packetBytes)"
scalar Wireless_12_10m.hostE.wlan[0].mac linkBroken:count 0
attr interpolationmode none
attr source linkBroken
attr title "link break, count"
scalar Wireless_12_10m.hostE.wlan[0].radio radioMode:count 7
attr interpolationmode sample-hold
attr source radioModeChanged
attr title "Radio mode, count"
scalar Wireless_12_10m.hostE.wlan[0].radio receptionState:count 57
attr interpolationmode sample-hold
attr source receptionStateChanged
attr title "Radio reception state, count"
scalar Wireless_12_10m.hostE.wlan[0].radio transmissionState:count 8
attr interpolationmode sample-hold
attr source transmissionStateChanged
attr title "Radio transmission state, count"
statistic Wireless_12_10m.hostE.wlan[0].radio minSnir:histogram
field count 25
field mean 2030.2417238914
field stddev 1625.2336435958
field min 1.4977443629148
field max 7434.2518517284
field sum 50756.043097285
field sqrsum 166440261.94635
attr source minimumSnir(packetSentToUpper)
attr title "Min SNIR, histogram"
bin	-inf	0
bin	0	1
bin	200	0
bin	400	2
bin	600	3
bin	800	2
bin	1000	0
bin	1200	0
bin	1400	0
bin	1600	0
bin	1800	13
bin	2000	0
bin	2200	0
bin	2400	1
bin	2600	0
bin	2800	0
bin	3000	0
bin	3200	0
bin	3400	0
bin	3600	0
bin	3800	0
bin	4000	0
bin	4200	0
bin	4400	0
bin	4600	0
bin	4800	2
bin	5000	0
bin	5200	0
bin	5400	0
bin	5600	0
bin	5800	0
bin	6000	0
bin	6200	0
bin	6400	0
bin	6600	0
bin	6800	0
bin	7000	0
bin	7200	0
bin	7400	1
bin	7600	0
bin	7800	0
bin	8000	0
bin	8200	0
bin	8400	0
bin	8600	0
bin	8800	0
bin	9000	0
bin	9200	0
bin	9400	0
statistic Wireless_12_10m.hostE.wlan[0].radio packetErrorRate:histogram
field count 25
field mean 0.039163622044025
field stddev 0.19581811022013
field min 0
field max 0.97909055110064
field sum 0.97909055110064
field sqrsum 0.95861830725455
attr source packetErrorRate(packetSentToUpper)
attr title "Packet error rate, histogram"
bin	-inf	0
bin	0	24
bin	0.02	0
bin	0.04	0
bin	0.06	0
bin	0.08	0
bin	0.1	0
bin	0.12	0
bin	0.14	0
bin	0.16	0
bin	0.18	0
bin	0.2	0
bin	0.22	0
bin	0.24	0
bin	0.26	0
bin	0.28	0
bin	0.3	0
bin	0.32	0
bin	0.34	0
bin	0.36	0
bin	0.38	0
bin	0.4	0
bin	0.42	0
bin	0.44	0
bin	0.46	0
bin	0.48	0
bin	0.5	0
bin	0.52	0
bin	0.54	0
bin	0.56	0
bin	0.58	0
bin	0.6	0
bin	0.62	0
bin	0.64	0
bin	0.66	0
bin	0.68	0
bin	0.7	0
bin	0.72	0
bin	0.74	0
bin	0.76	0
bin	0.78	0
bin	0.8	0
bin	0.82	0
bin	0.84	0
bin	0.86	0
bin	0.88	0
bin	0.9	0
bin	0.92	0
bin	0.94	0
bin	0.96	1
bin	0.98	0
bin	1	0
bin	1.02	0
bin	1.04	0
bin	1.06	0
bin	1.08	0
bin	1.1	0
bin	1.12	0
bin	1.14	0
bin	1.16	0
bin	1.18	0
bin	1.2	0
bin	1.22	0
bin	1.24	0
statistic Wireless_12_10m.hostE.wlan[0].radio bitErrorRate:histogram
field count 25
field mean 0.00028758464828307
field stddev 0.0014379232414154
field min 0
field max 0.0071896162070768
field sum 0.0071896162070768
field sqrsum 5.1690581205062e-05
attr source bitErrorRate(packetSentToUpper)
attr title "Bit error rate, histogram"
bin	-inf	0
bin	0	24
bin	0.0001	0
bin	0.0002	0
bin	0.0003	0
bin	0.0004	0
bin	0.0005	0
bin	0.0006	0
bin	0.0007	0
bin	0.0008	0
bin	0.0009	0
bin	0.001	0
bin	0.0011	0
bin	0.0012	0
bin	0.0013	0
bin	0.0014	0
bin	0.0015	0
bin	0.0016	0
bin	0.0017	0
bin	0.0018	0
bin	0.0019	0
bin	0.002	0
bin	0.0021	0
bin	0.0022	0
bin	0.0023	0
bin	0.0024	0
bin	0.0025	0
bin	0.0026	0
bin	0.0027	0
bin	0.0028	0
bin	0.0029	0
bin	0.003	0
bin	0.0031	0
bin	0.0032	0
bin	0.0033	0
bin	0.0034	0
bin	0.0035	0
bin	0.0036	0
bin	0.0037	0
bin	0.0038	0
bin	0.0039	0
bin	0.004	0
bin	0.0041	0
bin	0.0042	0
bin	0.0043	0
bin	0.0044	0
bin	0.0045	0
bin	0.0046	0
bin	0.0047	0
bin	0.0048	0
bin	0.0049	0
bin	0.005	0
bin	0.0051	0
bin	0.0052	0
bin	0.0053	0
bin	0.0054	0
bin	0.0055	0
bin	0.0056	0
bin	0.0057	0
bin	0.0058	0
bin	0.0059	0
bin	0.006	0
bin	0.0061	0
bin	0.0062	0
bin	0.0063	0
bin	0.0064	0
bin	0.0065	0
bin	0.0066	0
bin	0.0067	0
bin	0.0068	0
bin	0.0069	0
bin	0.007	0
bin	0.0071	1
bin	0.0072	0
bin	0.0073	0
bin	0.0074	0
bin	0.0075	0
bin	0.0076	0
bin	0.0077	0
bin	0.0078	0
bin	0.0079	0
bin	0.008	0
bin	0.0081	0
bin	0.0082	0
bin	0.0083	0
bin	0.0084	0
bin	0.0085	0
bin	0.0086	0
bin	0.0087	0
bin	0.0088	0
bin	0.0089	0
bin	0.009	0
statistic Wireless_12_10m.hostE.wlan[0].radio symbolErrorRate:histogram
field count 25
field mean 0.00028758464828307
field stddev 0.0014379232414154
field min 0
field max 0.0071896162070768
field sum 0.0071896162070768
field sqrsum 5.1690581205062e-05
attr source symbolErrorRate(packetSentToUpper)
attr title "Symbol error rate, histogram"
bin	-inf	0
bin	0	24
bin	0.0001	0
bin	0.0002	0
bin	0.0003	0
bin	0.0004	0
bin	0.0005	0
bin	0.0006	0
bin	0.0007	0
bin	0.0008	0
bin	0.0009	0
bin	0.001	0
bin	0.0011	0
bin	0.0012	0
bin	0.0013	0
bin	0.0014	0
bin	0.0015	0
bin	0.0016	0
bin	0.0017	0
bin	0.0018	0
bin	0.0019	0
bin	0.002	0
bin	0.0021	0
bin	0.0022	0
bin	0.0023	0
bin	0.0024	0
bin	0.0025	0
bin	0.0026	0
bin	0.0027	0
bin	0.0028	0
bin	0.0029	0
bin	0.003	0
bin	0.0031	0
bin	0.0032	0
bin	0.0033	0
bin	0.0034	0
bin	0.0035	0
bin	0.0036	0
bin	0.0037	0
bin	0.0038	0
bin	0.0039	0
bin	0.004	0
bin	0.0041	0
bin	0.0042	0
bin	0.0043	0
bin	0.0044	0
bin	0.0045	0
bin	0.0046	0
bin	0.0047	0
bin	0.0048	0
bin	0.0049	0
bin	0.005	0
bin	0.0051	0
bin	0.0052	0
bin	0.0053	0
bin	0.0054	0
bin	0.0055	0
bin	0.0056	0
bin	0.0057	0
bin	0.0058	0
bin	0.0059	0
bin	0.006	0
bin	0.0061	0
bin	0.0062	0
bin	0.0063	0
bin	0.0064	0
bin	0.0065	0
bin	0.0066	0
bin	0.0067	0
bin	0.0068	0
bin	0.0069	0
bin	0.007	0
bin	0.0071	1
bin	0.0072	0
bin	0.0073	0
bin	0.0074	0
bin	0.0075	0
bin	0.0076	0
bin	0.0077	0
bin	0.0078	0
bin	0.0079	0
bin	0.008	0
bin	0.0081	0
bin	0.0082	0
bin	0.0083	0
bin	0.0084	0
bin	0.0085	0
bin	0.0086	0
bin	0.0087	0
bin	0.0088	0
bin	0.0089	0
bin	0.009	0
scalar Wireless_12_10m.hostE.ipv4.ip packetDropAddressResolutionFailed:count 0
attr interpolationmode none
attr source packetDropReasonIsAddressResolutionFailed(packetDropped)
attr title "packet drop: address resolution failed, count"
scalar Wireless_12_10m.hostE.ipv4.ip packetDropAddressResolutionFailed:sum(packetBytes) 0
attr interpolationmode none
attr source packetDropReasonIsAddressResolutionFailed(packetDropped)
attr title "packet drop: address resolution failed, sum(packetBytes)"
scalar Wireless_12_10m.hostE.ipv4.ip packetDropHopLimitReached:count 0
attr interpolationmode none
attr source packetDropReasonIsHopLimitReached(packetDropped)
attr title "packet drop: hop limit reached, count"
scalar Wireless_12_10m.hostE.ipv4.ip packetDropHopLimitReached:sum(packetBytes) 0
attr interpolationmode none
attr source packetDropReasonIsHopLimitReached(packetDropped)
attr title "packet drop: hop limit reached, sum(packetBytes)"
scalar Wireless_12_10m.hostE.ipv4.ip packetDropForwardingDisabled:count 0
attr interpolationmode none
attr source packetDropReasonIsForwardingDisabled(packetDropped)
attr title "packet drop: forwarding disabled, count"
scalar Wireless_12_10m.hostE.ipv4.ip packetDropForwardingDisabled:sum(packetBytes) 0
attr interpolationmode none
attr source packetDropReasonIsForwardingDisabled(packetDropped)
attr title "packet drop: forwarding disabled, sum(packetBytes)"
scalar Wireless_12_10m.hostE.ipv4.ip packetDropNoInterfaceFound:count 0
attr interpolationmode none
attr source packetDropReasonIsNoInterfaceFound(packetDropped)
attr title "packet drop: no interface found, count"
scalar Wireless_12_10m.hostE.ipv4.ip packetDropNoInterfaceFound:sum(packetBytes) 0
attr interpolationmode none
attr source packetDropReasonIsNoInterfaceFound(packetDropped)
attr title "packet drop: no interface found, sum(packetBytes)"
scalar Wireless_12_10m.hostE.ipv4.ip packetDropNoRouteFound:count 0
attr interpolationmode none
attr source packetDropReasonIsNoRouteFound(packetDropped)
attr title "packet drop: no route found, count"
scalar Wireless_12_10m.hostE.ipv4.ip packetDropNoRouteFound:sum(packetBytes) 0
attr interpolationmode none
attr source packetDropReasonIsNoRouteFound(packetDropped)
attr title "packet drop: no route found, sum(packetBytes)"
scalar Wireless_12_10m.hostE.ipv4.ip packetDropUndefined:count 0
attr interpolationmode none
attr source packetDropReasonIsUndefined(packetDropped)
attr title "packet drop: undefined, count"
scalar Wireless_12_10m.hostE.ipv4.ip packetDropUndefined:sum(packetBytes) 0
attr interpolationmode none
attr source packetDropReasonIsUndefined(packetDropped)
attr title "packet drop: undefined, sum(packetBytes)"
scalar Wireless_12_10m.hostE.udp packetReceived:count 1
attr interpolationmode none
attr source packetReceived
attr title "packets received, count"
scalar Wireless_12_10m.hostE.udp packetReceived:sum(packetBytes) 12
attr interpolationmode none
attr source packetReceived
attr title "packets received, sum(packetBytes)"
scalar Wireless_12_10m.hostE.udp packetSent:count 1
attr interpolationmode none
attr source packetSent
attr title "packets sent, count"
scalar Wireless_12_10m.hostE.udp packetSent:sum(packetBytes) 12
attr interpolationmode none
attr source packetSent
attr title "packets sent, sum(packetBytes)"
scalar Wireless_12_10m.hostE.udp passedUpPk:count 1
attr interpolationmode none
attr source packetSentToUpper
attr title "packets passed up, count"
scalar Wireless_12_10m.hostE.udp droppedPkWrongPort:count 0
attr interpolationmode none
attr source packetDropReasonIsNoPortFound(packetDropped)
attr title "packets dropped (wrong port), count"
scalar Wireless_12_10m.hostE.udp droppedPkBadChecksum:count 0
attr interpolationmode none
attr source packetDropReasonIsIncorrectlyReceived(packetDropped)
attr title "packets dropped (checksum error), count"
scalar Wireless_12_10m.hostF.lo[0].lo rcvdPkFromHl:count 0
attr interpolationmode none
attr source packetReceivedFromUpper
attr title "packets received from higher layer, count"
scalar Wireless_12_10m.hostF.lo[0].lo rcvdPkFromHl:sum(packetBytes) 0
attr interpolationmode none
attr source packetReceivedFromUpper
attr title "packets received from higher layer, sum(packetBytes)"
scalar Wireless_12_10m.hostF.lo[0].lo passedUpPk:count 0
attr interpolationmode none
attr source packetSentToUpper
attr title "packets passed to higher layer, count"
scalar Wireless_12_10m.hostF.lo[0].lo passedUpPk:sum(packetBytes) 0
attr interpolationmode none
attr source packetSentToUpper
attr title "packets passed to higher layer, sum(packetBytes)"
scalar Wireless_12_10m.hostF.wlan[0].mac.queue packetPopped:count 1
attr interpolationmode none
attr title "packet popped, count"
scalar Wireless_12_10m.hostF.wlan[0].mac.queue packetPopped:sum(packetBytes) 59
attr interpolationmode none
attr title "packet popped, sum(packetBytes)"
statistic Wireless_12_10m.hostF.wlan[0].mac.queue queueingTime:histogram
field count 1
field mean 0
field stddev -nan
field min 0
field max 0
field sum 0
field sqrsum 0
attr interpolationmode none
attr source queueingTime(packetPopped)
attr title "queueing times, histogram"
attr unit s
bin	-inf	0
bin	-0.5	0
bin	-0.48	0
bin	-0.46	0
bin	-0.44	0
bin	-0.42	0
bin	-0.4	0
bin	-0.38	0
bin	-0.36	0
bin	-0.34	0
bin	-0.32	0
bin	-0.3	0
bin	-0.28	0
bin	-0.26	0
bin	-0.24	0
bin	-0.22	0
bin	-0.2	0
bin	-0.18	0
bin	-0.16	0
bin	-0.14	0
bin	-0.12	0
bin	-0.1	0
bin	-0.08	0
bin	-0.06	0
bin	-0.04	0
bin	-0.02	0
bin	0	1
bin	0.02	0
bin	0.04	0
bin	0.06	0
bin	0.08	0
bin	0.1	0
bin	0.12	0
bin	0.14	0
bin	0.16	0
bin	0.18	0
bin	0.2	0
bin	0.22	0
bin	0.24	0
bin	0.26	0
bin	0.28	0
bin	0.3	0
bin	0.32	0
bin	0.34	0
bin	0.36	0
bin	0.38	0
bin	0.4	0
bin	0.42	0
bin	0.44	0
bin	0.46	0
bin	0.48	0
bin	0.5	0
scalar Wireless_12_10m.hostF.wlan[0].mac.queue queueLength:max 1
attr interpolationmode sample-hold
attr source "count(packetPushed) - count(packetPopped) - count(packetRemoved) - count(packetDropped)"
attr title "queue length, max"
scalar Wireless_12_10m.hostF.wlan[0].mac.queue queueLength:timeavg 0
attr interpolationmode sample-hold
attr source "count(packetPushed) - count(packetPopped) - count(packetRemoved) - count(packetDropped)"
attr title "queue length, timeavg"
scalar Wireless_12_10m.hostF.wlan[0].mac.queue packetPushed:count 1
attr interpolationmode none
attr title "packet pushed, count"
scalar Wireless_12_10m.hostF.wlan[0].mac.queue packetPushed:sum(packetBytes) 59
attr interpolationmode none
attr title "packet pushed, sum(packetBytes)"
scalar Wireless_12_10m.hostF.wlan[0].mac.queue packetDropQueueOverflow:count 0
attr interpolationmode none
attr source packetDropReasonIsQueueOverflow(packetDropped)
attr title "packet drops: queue overflow, count"
scalar Wireless_12_10m.hostF.wlan[0].mac.queue packetDropQueueOverflow:sum(packetBytes) 0
attr interpolationmode none
attr source packetDropReasonIsQueueOverflow(packetDropped)
attr title "packet drops: queue overflow, sum(packetBytes)"
[...]
bin	0.0043	0
bin	0.0044	0
bin	0.0045	0
bin	0.0046	0
bin	0.0047	0
bin	0.0048	0
bin	0.0049	0
bin	0.005	0
bin	0.0051	0
bin	0.0052	0
bin	0.0053	0
bin	0.0054	0
bin	0.0055	0
bin	0.0056	0
bin	0.0057	0
bin	0.0058	0
bin	0.0059	0
bin	0.006	0
bin	0.0061	0
bin	0.0062	0
bin	0.0063	0
bin	0.0064	0
bin	0.0065	0
bin	0.0066	0
bin	0.0067	0
bin	0.0068	0
bin	0.0069	0
bin	0.007	0
bin	0.0071	1
bin	0.0072	0
bin	0.0073	0
bin	0.0074	0
bin	0.0075	0
bin	0.0076	0
bin	0.0077	0
bin	0.0078	0
bin	0.0079	0
bin	0.008	0
bin	0.0081	0
bin	0.0082	0
bin	0.0083	0
bin	0.0084	0
bin	0.0085	0
bin	0.0086	0
bin	0.0087	0
bin	0.0088	0
bin	0.0089	0
bin	0.009	0
scalar Wireless_12_10m.hostL.ipv4.ip packetDropAddressResolutionFailed:count 0
attr interpolationmode none
attr source packetDropReasonIsAddressResolutionFailed(packetDropped)
attr title "packet drop: address resolution failed, count"
scalar Wireless_12_10m.hostL.ipv4.ip packetDropAddressResolutionFailed:sum(packetBytes) 0
attr interpolationmode none
attr source packetDropReasonIsAddressResolutionFailed(packetDropped)
attr title "packet drop: address resolution failed, sum(packetBytes)"
scalar Wireless_12_10m.hostL.ipv4.ip packetDropHopLimitReached:count 0
attr interpolationmode none
attr source packetDropReasonIsHopLimitReached(packetDropped)
attr title "packet drop: hop limit reached, count"
scalar Wireless_12_10m.hostL.ipv4.ip packetDropHopLimitReached:sum(packetBytes) 0
attr interpolationmode none
attr source packetDropReasonIsHopLimitReached(packetDropped)
attr title "packet drop: hop limit reached, sum(packetBytes)"
scalar Wireless_12_10m.hostL.ipv4.ip packetDropForwardingDisabled:count 0
attr interpolationmode none
attr source packetDropReasonIsForwardingDisabled(packetDropped)
attr title "packet drop: forwarding disabled, count"
scalar Wireless_12_10m.hostL.ipv4.ip packetDropForwardingDisabled:sum(packetBytes) 0
attr interpolationmode none
attr source packetDropReasonIsForwardingDisabled(packetDropped)
attr title "packet drop: forwarding disabled, sum(packetBytes)"
scalar Wireless_12_10m.hostL.ipv4.ip packetDropNoInterfaceFound:count 0
attr interpolationmode none
attr source packetDropReasonIsNoInterfaceFound(packetDropped)
attr title "packet drop: no interface found, count"
scalar Wireless_12_10m.hostL.ipv4.ip packetDropNoInterfaceFound:sum(packetBytes) 0
attr interpolationmode none
attr source packetDropReasonIsNoInterfaceFound(packetDropped)
attr title "packet drop: no interface found, sum(packetBytes)"
scalar Wireless_12_10m.hostL.ipv4.ip packetDropNoRouteFound:count 0
attr interpolationmode none
attr source packetDropReasonIsNoRouteFound(packetDropped)
attr title "packet drop: no route found, count"
scalar Wireless_12_10m.hostL.ipv4.ip packetDropNoRouteFound:sum(packetBytes) 0
attr interpolationmode none
attr source packetDropReasonIsNoRouteFound(packetDropped)
attr title "packet drop: no route found, sum(packetBytes)"
scalar Wireless_12_10m.hostL.ipv4.ip packetDropUndefined:count 0
attr interpolationmode none
attr source packetDropReasonIsUndefined(packetDropped)
attr title "packet drop: undefined, count"
scalar Wireless_12_10m.hostL.ipv4.ip packetDropUndefined:sum(packetBytes) 0
attr interpolationmode none
attr source packetDropReasonIsUndefined(packetDropped)
attr title "packet drop: undefined, sum(packetBytes)"
scalar Wireless_12_10m.hostL.udp packetReceived:count 1
attr interpolationmode none
attr source packetReceived
attr title "packets received, count"
scalar Wireless_12_10m.hostL.udp packetReceived:sum(packetBytes) 12
attr interpolationmode none
attr source packetReceived
attr title "packets received, sum(packetBytes)"
scalar Wireless_12_10m.hostL.udp packetSent:count 1
attr interpolationmode none
attr source packetSent
attr title "packets sent, count"
scalar Wireless_12_10m.hostL.udp packetSent:sum(packetBytes) 12
attr interpolationmode none
attr source packetSent
attr title "packets sent, sum(packetBytes)"
scalar Wireless_12_10m.hostL.udp passedUpPk:count 1
attr interpolationmode none
attr source packetSentToUpper
attr title "packets passed up, count"
scalar Wireless_12_10m.hostL.udp droppedPkWrongPort:count 0
attr interpolationmode none
attr source packetDropReasonIsNoPortFound(packetDropped)
attr title "packets dropped (wrong port), count"
scalar Wireless_12_10m.hostL.udp droppedPkBadChecksum:count 0
attr interpolationmode none
attr source packetDropReasonIsIncorrectlyReceived(packetDropped)
attr title "packets dropped (checksum error), count"
scalar Wireless_12_10m.hostM.lo[0].lo rcvdPkFromHl:count 0
attr interpolationmode none
attr source packetReceivedFromUpper
attr title "packets received from higher layer, count"
scalar Wireless_12_10m.hostM.lo[0].lo rcvdPkFromHl:sum(packetBytes) 0
attr interpolationmode none
attr source packetReceivedFromUpper
attr title "packets received from higher layer, sum(packetBytes)"
scalar Wireless_12_10m.hostM.lo[0].lo passedUpPk:count 0
attr interpolationmode none
attr source packetSentToUpper
attr title "packets passed to higher layer, count"
scalar Wireless_12_10m.hostM.lo[0].lo passedUpPk:sum(packetBytes) 0
attr interpolationmode none
attr source packetSentToUpper
attr title "packets passed to higher layer, sum(packetBytes)"
scalar Wireless_12_10m.hostM.wlan[0].mac.queue packetPopped:count 1
attr interpolationmode none
attr title "packet popped, count"
scalar Wireless_12_10m.hostM.wlan[0].mac.queue packetPopped:sum(packetBytes) 59
attr interpolationmode none
attr title "packet popped, sum(packetBytes)"
statistic Wireless_12_10m.hostM.wlan[0].mac.queue queueingTime:histogram
field count 1
field mean 0
field stddev -nan
field min 0
field max 0
field sum 0
field sqrsum 0
attr interpolationmode none
attr source queueingTime(packetPopped)
attr title "queueing times, histogram"
attr unit s
bin	-inf	0
bin	-0.5	0
bin	-0.48	0
bin	-0.46	0
bin	-0.44	0
bin	-0.42	0
bin	-0.4	0
bin	-0.38	0
bin	-0.36	0
bin	-0.34	0
bin	-0.32	0
bin	-0.3	0
bin	-0.28	0
bin	-0.26	0
bin	-0.24	0
bin	-0.22	0
bin	-0.2	0
bin	-0.18	0
bin	-0.16	0
bin	-0.14	0
bin	-0.12	0
bin	-0.1	0
bin	-0.08	0
bin	-0.06	0
bin	-0.04	0
bin	-0.02	0
bin	0	1
bin	0.02	0
bin	0.04	0
bin	0.06	0
bin	0.08	0
bin	0.1	0
bin	0.12	0
bin	0.14	0
bin	0.16	0
bin	0.18	0
bin	0.2	0
bin	0.22	0
bin	0.24	0
bin	0.26	0
bin	0.28	0
bin	0.3	0
bin	0.32	0
bin	0.34	0
bin	0.36	0
bin	0.38	0
bin	0.4	0
bin	0.42	0
bin	0.44	0
bin	0.46	0
bin	0.48	0
bin	0.5	0
scalar Wireless_12_10m.hostM.wlan[0].mac.queue queueLength:max 1
attr interpolationmode sample-hold
attr source "count(packetPushed) - count(packetPopped) - count(packetRemoved) - count(packetDropped)"
attr title "queue length, max"
scalar Wireless_12_10m.hostM.wlan[0].mac.queue queueLength:timeavg 0
attr interpolationmode sample-hold
attr source "count(packetPushed) - count(packetPopped) - count(packetRemoved) - count(packetDropped)"
attr title "queue length, timeavg"
scalar Wireless_12_10m.hostM.wlan[0].mac.queue packetPushed:count 1
attr interpolationmode none
attr title "packet pushed, count"
scalar Wireless_12_10m.hostM.wlan[0].mac.queue packetPushed:sum(packetBytes) 59
attr interpolationmode none
attr title "packet pushed, sum(packetBytes)"
scalar Wireless_12_10m.hostM.wlan[0].mac.queue packetDropQueueOverflow:count 0
attr interpolationmode none
attr source packetDropReasonIsQueueOverflow(packetDropped)
attr title "packet drops: queue overflow, count"
scalar Wireless_12_10m.hostM.wlan[0].mac.queue packetDropQueueOverflow:sum(packetBytes) 0
attr interpolationmode none
attr source packetDropReasonIsQueueOverflow(packetDropped)
attr title "packet drops: queue overflow, sum(packetBytes)"
scalar Wireless_12_10m.hostM.wlan[0].mac.queue packetRemoved:count 0
attr interpolationmode none
attr title "packets removed, count"
scalar Wireless_12_10m.hostM.wlan[0].mac.queue packetRemoved:sum(packetBytes) 0
attr interpolationmode none
attr title "packets removed, sum(packetBytes)"
scalar Wireless_12_10m.hostM.wlan[0].mac numRetry 0
scalar Wireless_12_10m.hostM.wlan[0].mac numSentWithoutRetry 1
scalar Wireless_12_10m.hostM.wlan[0].mac numGivenUp 0
scalar Wireless_12_10m.hostM.wlan[0].mac numCollision 0
scalar Wireless_12_10m.hostM.wlan[0].mac numSent 1
scalar Wireless_12_10m.hostM.wlan[0].mac numReceived 0
scalar Wireless_12_10m.hostM.wlan[0].mac numSentBroadcast 0
scalar Wireless_12_10m.hostM.wlan[0].mac numReceivedBroadcast 1
scalar Wireless_12_10m.hostM.wlan[0].mac packetDropIncorrectlyReceived:count 0
attr interpolationmode none
attr source packetDropReasonIsIncorrectlyReceived(packetDropped)
attr title "packet drop: incorrectly received, count"
scalar Wireless_12_10m.hostM.wlan[0].mac packetDropIncorrectlyReceived:sum(packetBytes) 0
attr interpolationmode none
attr source packetDropReasonIsIncorrectlyReceived(packetDropped)
attr title "packet drop: incorrectly received, sum(packetBytes)"
scalar Wireless_12_10m.hostM.wlan[0].mac packetDropNotAddressedToUs:count 13
attr interpolationmode none
attr source packetDropReasonIsNotAddressedToUs(packetDropped)
attr title "packet drop: not addressed to us, count"
scalar Wireless_12_10m.hostM.wlan[0].mac packetDropNotAddressedToUs:sum(packetBytes) 767
attr interpolationmode none
attr source packetDropReasonIsNotAddressedToUs(packetDropped)
attr title "packet drop: not addressed to us, sum(packetBytes)"
scalar Wireless_12_10m.hostM.wlan[0].mac packetDropQueueOverflow:count 0
attr interpolationmode none
attr source packetDropReasonIsQueueOverflow(packetDropped)
attr title "packet drop: queue overflow, count"
scalar Wireless_12_10m.hostM.wlan[0].mac packetDropQueueOverflow:sum(packetBytes) 0
attr interpolationmode none
attr source packetDropReasonIsQueueOverflow(packetDropped)
attr title "packet drop: queue overflow, sum(packetBytes)"
scalar Wireless_12_10m.hostM.wlan[0].mac packetDropRetryLimitReached:count 0
attr interpolationmode none
attr source packetDropReasonIsRetryLimitReached(packetDropped)
attr title "packet drop: retry limit reached, count"
scalar Wireless_12_10m.hostM.wlan[0].mac packetDropRetryLimitReached:sum(packetBytes) 0
attr interpolationmode none
attr source packetDropReasonIsRetryLimitReached(packetDropped)
attr title "packet drop: retry limit reached, sum(packetBytes)"
scalar Wireless_12_10m.hostM.wlan[0].mac linkBroken:count 0
attr interpolationmode none
attr source linkBroken
attr title "link break, count"
scalar Wireless_12_10m.hostM.wlan[0].radio radioMode:count 5
attr interpolationmode sample-hold
attr source radioModeChanged
attr title "Radio mode, count"
scalar Wireless_12_10m.hostM.wlan[0].radio receptionState:count 57
attr interpolationmode sample-hold
attr source receptionStateChanged
attr title "Radio reception state, count"
scalar Wireless_12_10m.hostM.wlan[0].radio transmissionState:count 4
attr interpolationmode sample-hold
attr source transmissionStateChanged
attr title "Radio transmission state, count"
statistic Wireless_12_10m.hostM.wlan[0].radio minSnir:histogram
field count 26
field mean 6951.7028258256
field stddev 26911.453113569
field min 3.7250718191811
field max 138725.02813457
field sum 180744.27347147
field sqrsum 19362138193.739
attr source minimumSnir(packetSentToUpper)
attr title "Min SNIR, histogram"
bin	-inf	0
bin	0	24
bin	2000	0
bin	4000	0
bin	6000	1
bin	8000	0
bin	10000	0
bin	12000	0
bin	14000	0
bin	16000	0
bin	18000	0
bin	20000	0
bin	22000	0
bin	24000	0
bin	26000	0
bin	28000	0
bin	30000	0
bin	32000	0
bin	34000	0
bin	36000	0
bin	38000	0
bin	40000	0
bin	42000	0
bin	44000	0
bin	46000	0
bin	48000	0
bin	50000	0
bin	52000	0
bin	54000	0
bin	56000	0
bin	58000	0
bin	60000	0
bin	62000	0
bin	64000	0
bin	66000	0
bin	68000	0
bin	70000	0
bin	72000	0
bin	74000	0
bin	76000	0
bin	78000	0
bin	80000	0
bin	82000	0
bin	84000	0
bin	86000	0
bin	88000	0
bin	90000	0
bin	92000	0
bin	94000	0
bin	96000	0
bin	98000	0
bin	100000	0
bin	102000	0
bin	104000	0
bin	106000	0
bin	108000	0
bin	110000	0
bin	112000	0
bin	114000	0
bin	116000	0
bin	118000	0
bin	120000	0
bin	122000	0
bin	124000	0
bin	126000	0
bin	128000	0
bin	130000	0
bin	132000	0
bin	134000	0
bin	136000	0
bin	138000	1
bin	140000	0
bin	142000	0
bin	144000	0
bin	146000	0
bin	148000	0
bin	150000	0
bin	152000	0
bin	154000	0
bin	156000	0
bin	158000	0
bin	160000	0
bin	162000	0
bin	164000	0
bin	166000	0
bin	168000	0
bin	170000	0
bin	172000	0
bin	174000	0
statistic Wireless_12_10m.hostM.wlan[0].radio packetErrorRate:histogram
field count 26
field mean 0.0011507984934536
field stddev 0.0058679427300185
field min 0
field max 0.029920754729039
field sum 0.029920760829794
field sqrsum 0.00089525156355535
attr source packetErrorRate(packetSentToUpper)
attr title "Packet error rate, histogram"
bin	-inf	0
bin	0	25
bin	0.0005	0
bin	0.001	0
bin	0.0015	0
bin	0.002	0
bin	0.0025	0
bin	0.003	0
bin	0.0035	0
bin	0.004	0
bin	0.0045	0
bin	0.005	0
bin	0.0055	0
bin	0.006	0
bin	0.0065	0
bin	0.007	0
bin	0.0075	0
bin	0.008	0
bin	0.0085	0
bin	0.009	0
bin	0.0095	0
bin	0.01	0
bin	0.0105	0
bin	0.011	0
bin	0.0115	0
bin	0.012	0
bin	0.0125	0
bin	0.013	0
bin	0.0135	0
bin	0.014	0
bin	0.0145	0
bin	0.015	0
bin	0.0155	0
bin	0.016	0
bin	0.0165	0
bin	0.017	0
bin	0.0175	0
bin	0.018	0
bin	0.0185	0
bin	0.019	0
bin	0.0195	0
bin	0.02	0
bin	0.0205	0
bin	0.021	0
bin	0.0215	0
bin	0.022	0
bin	0.0225	0
bin	0.023	0
bin	0.0235	0
bin	0.024	0
bin	0.0245	0
bin	0.025	0
bin	0.0255	0
bin	0.026	0
bin	0.0265	0
bin	0.027	0
bin	0.0275	0
bin	0.028	0
bin	0.0285	0
bin	0.029	0
bin	0.0295	1
bin	0.03	0
bin	0.0305	0
bin	0.031	0
bin	0.0315	0
bin	0.032	0
bin	0.0325	0
bin	0.033	0
bin	0.0335	0
bin	0.034	0
bin	0.0345	0
bin	0.035	0
bin	0.0355	0
bin	0.036	0
bin	0.0365	0
bin	0.037	0
bin	0.0375	0
statistic Wireless_12_10m.hostM.wlan[0].radio bitErrorRate:histogram
field count 26
field mean 2.1797258875091e-06
field stddev 1.1114462513198e-05
field min 0
field max 5.6672861693175e-05
field sum 5.6672873075236e-05
field sqrsum 3.2118132524939e-09
attr source bitErrorRate(packetSentToUpper)
attr title "Bit error rate, histogram"
bin	-inf	0
bin	0	25
bin	1e-06	0
bin	2e-06	0
bin	3e-06	0
bin	4e-06	0
bin	5e-06	0
bin	6e-06	0
bin	7e-06	0
bin	8e-06	0
bin	9e-06	0
bin	1e-05	0
bin	1.1e-05	0
bin	1.2e-05	0
bin	1.3e-05	0
bin	1.4e-05	0
bin	1.5e-05	0
bin	1.6e-05	0
bin	1.7e-05	0
bin	1.8e-05	0
bin	1.9e-05	0
bin	2e-05	0
bin	2.1e-05	0
bin	2.2e-05	0
bin	2.3e-05	0
bin	2.4e-05	0
bin	2.5e-05	0
bin	2.6e-05	0
bin	2.7e-05	0
bin	2.8e-05	0
bin	2.9e-05	0
bin	3e-05	0
bin	3.1e-05	0
bin	3.2e-05	0
bin	3.3e-05	0
bin	3.4e-05	0
bin	3.5e-05	0
bin	3.6e-05	0
bin	3.7e-05	0
bin	3.8e-05	0
bin	3.9e-05	0
bin	4e-05	0
bin	4.1e-05	0
bin	4.2e-05	0
bin	4.3e-05	0
bin	4.4e-05	0
bin	4.5e-05	0
bin	4.6e-05	0
bin	4.7e-05	0
bin	4.8e-05	0
bin	4.9e-05	0
bin	5e-05	0
bin	5.1e-05	0
bin	5.2e-05	0
bin	5.3e-05	0
bin	5.4e-05	0
bin	5.5e-05	0
bin	5.6e-05	1
bin	5.7e-05	0
bin	5.8e-05	0
bin	5.9e-05	0
bin	6e-05	0
bin	6.1e-05	0
bin	6.2e-05	0
bin	6.3e-05	0
bin	6.4e-05	0
bin	6.5e-05	0
bin	6.6e-05	0
bin	6.7e-05	0
bin	6.8e-05	0
bin	6.9e-05	0
bin	7e-05	0
bin	7.1e-05	0
statistic Wireless_12_10m.hostM.wlan[0].radio symbolErrorRate:histogram
field count 26
field mean 2.1797258875091e-06
field stddev 1.1114462513198e-05
field min 0
field max 5.6672861693175e-05
field sum 5.6672873075236e-05
field sqrsum 3.2118132524939e-09
attr source symbolErrorRate(packetSentToUpper)
attr title "Symbol error rate, histogram"
bin	-inf	0
bin	0	25
bin	1e-06	0
bin	2e-06	0
bin	3e-06	0
bin	4e-06	0
bin	5e-06	0
bin	6e-06	0
bin	7e-06	0
bin	8e-06	0
bin	9e-06	0
bin	1e-05	0
bin	1.1e-05	0
bin	1.2e-05	0
bin	1.3e-05	0
bin	1.4e-05	0
bin	1.5e-05	0
bin	1.6e-05	0
bin	1.7e-05	0
bin	1.8e-05	0
bin	1.9e-05	0
bin	2e-05	0
bin	2.1e-05	0
bin	2.2e-05	0
bin	2.3e-05	0
bin	2.4e-05	0
bin	2.5e-05	0
bin	2.6e-05	0
bin	2.7e-05	0
bin	2.8e-05	0
bin	2.9e-05	0
bin	3e-05	0
bin	3.1e-05	0
bin	3.2e-05	0
bin	3.3e-05	0
bin	3.4e-05	0
bin	3.5e-05	0
bin	3.6e-05	0
bin	3.7e-05	0
bin	3.8e-05	0
bin	3.9e-05	0
bin	4e-05	0
bin	4.1e-05	0
bin	4.2e-05	0
bin	4.3e-05	0
bin	4.4e-05	0
bin	4.5e-05	0
bin	4.6e-05	0
bin	4.7e-05	0
bin	4.8e-05	0
bin	4.9e-05	0
bin	5e-05	0
bin	5.1e-05	0
bin	5.2e-05	0
bin	5.3e-05	0
bin	5.4e-05	0
bin	5.5e-05	0
bin	5.6e-05	1
bin	5.7e-05	0
bin	5.8e-05	0
bin	5.9e-05	0
bin	6e-05	0
bin	6.1e-05	0
bin	6.2e-05	0
bin	6.3e-05	0
bin	6.4e-05	0
bin	6.5e-05	0
bin	6.6e-05	0
bin	6.7e-05	0
bin	6.8e-05	0
bin	6.9e-05	0
bin	7e-05	0
bin	7.1e-05	0
scalar Wireless_12_10m.hostM.ipv4.ip packetDropAddressResolutionFailed:count 0
attr interpolationmode none
attr source packetDropReasonIsAddressResolutionFailed(packetDropped)
attr title "packet drop: address resolution failed, count"
scalar Wireless_12_10m.hostM.ipv4.ip packetDropAddressResolutionFailed:sum(packetBytes) 0
attr interpolationmode none
attr source packetDropReasonIsAddressResolutionFailed(packetDropped)
attr title "packet drop: address resolution failed, sum(packetBytes)"
scalar Wireless_12_10m.hostM.ipv4.ip packetDropHopLimitReached:count 0
attr interpolationmode none
attr source packetDropReasonIsHopLimitReached(packetDropped)
attr title "packet drop: hop limit reached, count"
scalar Wireless_12_10m.hostM.ipv4.ip packetDropHopLimitReached:sum(packetBytes) 0
attr interpolationmode none
attr source packetDropReasonIsHopLimitReached(packetDropped)
attr title "packet drop: hop limit reached, sum(packetBytes)"
scalar Wireless_12_10m.hostM.ipv4.ip packetDropForwardingDisabled:count 0
attr interpolationmode none
attr source packetDropReasonIsForwardingDisabled(packetDropped)
attr title "packet drop: forwarding disabled, count"
scalar Wireless_12_10m.hostM.ipv4.ip packetDropForwardingDisabled:sum(packetBytes) 0
attr interpolationmode none
attr source packetDropReasonIsForwardingDisabled(packetDropped)
attr title "packet drop: forwarding disabled, sum(packetBytes)"
scalar Wireless_12_10m.hostM.ipv4.ip packetDropNoInterfaceFound:count 0
attr interpolationmode none
attr source packetDropReasonIsNoInterfaceFound(packetDropped)
attr title "packet drop: no interface found, count"
scalar Wireless_12_10m.hostM.ipv4.ip packetDropNoInterfaceFound:sum(packetBytes) 0
attr interpolationmode none
attr source packetDropReasonIsNoInterfaceFound(packetDropped)
attr title "packet drop: no interface found, sum(packetBytes)"
scalar Wireless_12_10m.hostM.ipv4.ip packetDropNoRouteFound:count 0
attr interpolationmode none
attr source packetDropReasonIsNoRouteFound(packetDropped)
attr title "packet drop: no route found, count"
scalar Wireless_12_10m.hostM.ipv4.ip packetDropNoRouteFound:sum(packetBytes) 0
attr interpolationmode none
attr source packetDropReasonIsNoRouteFound(packetDropped)
attr title "packet drop: no route found, sum(packetBytes)"
scalar Wireless_12_10m.hostM.ipv4.ip packetDropUndefined:count 0
attr interpolationmode none
attr source packetDropReasonIsUndefined(packetDropped)
attr title "packet drop: undefined, count"
scalar Wireless_12_10m.hostM.ipv4.ip packetDropUndefined:sum(packetBytes) 0
attr interpolationmode none
attr source packetDropReasonIsUndefined(packetDropped)
attr title "packet drop: undefined, sum(packetBytes)"
scalar Wireless_12_10m.hostM.udp packetReceived:count 1
attr interpolationmode none
attr source packetReceived
attr title "packets received, count"
scalar Wireless_12_10m.hostM.udp packetReceived:sum(packetBytes) 12
attr interpolationmode none
attr source packetReceived
attr title "packets received, sum(packetBytes)"
scalar Wireless_12_10m.hostM.udp packetSent:count 1
attr interpolationmode none
attr source packetSent
attr title "packets sent, count"
scalar Wireless_12_10m.hostM.udp packetSent:sum(packetBytes) 12
attr interpolationmode none
attr source packetSent
attr title "packets sent, sum(packetBytes)"
scalar Wireless_12_10m.hostM.udp passedUpPk:count 1
attr interpolationmode none
attr source packetSentToUpper
attr title "packets passed up, count"
scalar Wireless_12_10m.hostM.udp droppedPkWrongPort:count 0
attr interpolationmode none
attr source packetDropReasonIsNoPortFound(packetDropped)
attr title "packets dropped (wrong port), count"
scalar Wireless_12_10m.hostM.udp droppedPkBadChecksum:count 0
attr interpolationmode none
attr source packetDropReasonIsIncorrectlyReceived(packetDropped)
attr title "packets dropped (checksum error), count"

