version 2
run Wireless01-136-20200710-12:28:06-3304
attr configname Wireless01
attr datetime 20200710-12:28:06
attr experiment Wireless01
attr inifile omnetpp.ini
attr iterationvars $name=Wireless_6_5m
attr iterationvarsf name=Wireless#_6#_5m-
attr measurement $name=Wireless_6_5m
attr network "${name=Wireless_3_1m,Wireless_3_5m, Wireless_3_10m, Wireless_6_1m, Wireless_6_5m, Wireless_6_10m, Wireless_12_1m, Wireless_12_5m, Wireless_12_10m }"
attr processid 3304
attr repetition 16
attr replication #16
attr resultdir results
attr runnumber 136
attr seedset 136
itervar name Wireless_6_5m
param *.hostA.numApps 1
param *.hostA.app[0].typename "\"TDOAApp\""
param *.hostA.app[0].destAddresses "\"Broadcast\""
param *.hostA.app[0].destPort 5000
param *.hostA.app[0].localPort 6000
param *.hostA.app[0].isReceiver false
param *.hostA.app[0].Nome_arquivo "\"Wireless_6_5m.csv\""
param *.host*.numApps 1
param *.host*.app[0].typename "\"TDOAApp\""
param *.host*.app[0].localPort 5000
param *.host*.app[0].destPort 6000
param *.host*.app[0].destAddresses "\"hostA\""
param *.host*.app[0].isReceiver true
param *.host*.wlan[0].typename "\"WirelessInterface\""
param *.radioMedium.typename "\"ApskScalarRadioMedium\""
param *.radioMedium.backgroundNoise.power -90dBm
param *.radioMedium.mediumLimitCache.centerFrequency 2GHz
param *.host*.wlan[0].radio.typename "\"ApskScalarRadio\""
param *.host*.wlan[0].radio.centerFrequency 2GHz
param *.host*.wlan[0].radio.bandwidth 2MHz
param *.host*.wlan[0].radio.transmitter.power 1.4mW
param *.host*.wlan[0].radio.transmitter.preambleDuration 10us
param *.host*.wlan[0].radio.transmitter.headerLength 8B
param *.host*.wlan[0].radio.receiver.sensitivity -85dBm
param *.host*.wlan[0].radio.receiver.energyDetection -85dBm
param *.host*.wlan[0].radio.receiver.snirThreshold 4dB
param *.host*.wlan[0].mac.typename "\"CsmaCaMac\""
param *.host*.wlan[0].mac.ackTimeout 300us
param *.host*.wlan[0].mac.useAck true
param *.host*.wlan[0].mac.fullDuplex false
param *.host*.wlan[0].radio.receiver.ignoreInterference true
param *.host*.wlan[0].mac.headerLength 23B
param *.host*.**.bitrate 1Mbps
param *.host*.ipv4.arp.typename "\"GlobalArp\""
param **.ip.limitedBroadcast true

scalar Wireless_6_5m.radioMedium.propagation "Arrival computation count" 78
scalar Wireless_6_5m.radioMedium "transmission count" 13
scalar Wireless_6_5m.radioMedium "signal send count" 78
scalar Wireless_6_5m.radioMedium "reception computation count" 78
scalar Wireless_6_5m.radioMedium "interference computation count" 254
scalar Wireless_6_5m.radioMedium "reception decision computation count" 78
scalar Wireless_6_5m.radioMedium "listening decision computation count" 98
scalar Wireless_6_5m.radioMedium "reception cache hit" 85.714285714286
attr unit %
scalar Wireless_6_5m.radioMedium "interference cache hit" 66.666666666667
attr unit %
scalar Wireless_6_5m.radioMedium "noise cache hit" 0
attr unit %
scalar Wireless_6_5m.radioMedium "snir cache hit" 50
attr unit %
scalar Wireless_6_5m.radioMedium "reception decision cache hit" 50
attr unit %
scalar Wireless_6_5m.radioMedium "reception result cache hit" 0
attr unit %
scalar Wireless_6_5m.hostA.lo[0].lo rcvdPkFromHl:count 1
attr interpolationmode none
attr source packetReceivedFromUpper
attr title "packets received from higher layer, count"
scalar Wireless_6_5m.hostA.lo[0].lo rcvdPkFromHl:sum(packetBytes) 32
attr interpolationmode none
attr source packetReceivedFromUpper
attr title "packets received from higher layer, sum(packetBytes)"
scalar Wireless_6_5m.hostA.lo[0].lo passedUpPk:count 1
attr interpolationmode none
attr source packetSentToUpper
attr title "packets passed to higher layer, count"
scalar Wireless_6_5m.hostA.lo[0].lo passedUpPk:sum(packetBytes) 32
attr interpolationmode none
attr source packetSentToUpper
attr title "packets passed to higher layer, sum(packetBytes)"
scalar Wireless_6_5m.hostA.wlan[0].mac.queue packetPopped:count 1
attr interpolationmode none
attr title "packet popped, count"
scalar Wireless_6_5m.hostA.wlan[0].mac.queue packetPopped:sum(packetBytes) 59
attr interpolationmode none
attr title "packet popped, sum(packetBytes)"
statistic Wireless_6_5m.hostA.wlan[0].mac.queue queueingTime:histogram
field count 1
field mean 0
field stddev -nan
field min 0
field max 0
field sum 0
field sqrsum 0
attr interpolationmode none
attr source queueingTime(packetPopped)
attr title "queueing times, histogram"
attr unit s
bin	-inf	0
bin	-0.5	0
bin	-0.48	0
bin	-0.46	0
bin	-0.44	0
bin	-0.42	0
bin	-0.4	0
bin	-0.38	0
bin	-0.36	0
bin	-0.34	0
bin	-0.32	0
bin	-0.3	0
bin	-0.28	0
bin	-0.26	0
bin	-0.24	0
bin	-0.22	0
bin	-0.2	0
bin	-0.18	0
bin	-0.16	0
bin	-0.14	0
bin	-0.12	0
bin	-0.1	0
bin	-0.08	0
bin	-0.06	0
bin	-0.04	0
bin	-0.02	0
bin	0	1
bin	0.02	0
bin	0.04	0
bin	0.06	0
bin	0.08	0
bin	0.1	0
bin	0.12	0
bin	0.14	0
bin	0.16	0
bin	0.18	0
bin	0.2	0
bin	0.22	0
bin	0.24	0
bin	0.26	0
bin	0.28	0
bin	0.3	0
bin	0.32	0
bin	0.34	0
bin	0.36	0
bin	0.38	0
bin	0.4	0
bin	0.42	0
bin	0.44	0
bin	0.46	0
bin	0.48	0
bin	0.5	0
scalar Wireless_6_5m.hostA.wlan[0].mac.queue queueLength:max 1
attr interpolationmode sample-hold
attr source "count(packetPushed) - count(packetPopped) - count(packetRemoved) - count(packetDropped)"
attr title "queue length, max"
scalar Wireless_6_5m.hostA.wlan[0].mac.queue queueLength:timeavg 0
attr interpolationmode sample-hold
attr source "count(packetPushed) - count(packetPopped) - count(packetRemoved) - count(packetDropped)"
attr title "queue length, timeavg"
scalar Wireless_6_5m.hostA.wlan[0].mac.queue packetPushed:count 1
attr interpolationmode none
attr title "packet pushed, count"
scalar Wireless_6_5m.hostA.wlan[0].mac.queue packetPushed:sum(packetBytes) 59
attr interpolationmode none
attr title "packet pushed, sum(packetBytes)"
scalar Wireless_6_5m.hostA.wlan[0].mac.queue packetDropQueueOverflow:count 0
attr interpolationmode none
attr source packetDropReasonIsQueueOverflow(packetDropped)
attr title "packet drops: queue overflow, count"
scalar Wireless_6_5m.hostA.wlan[0].mac.queue packetDropQueueOverflow:sum(packetBytes) 0
attr interpolationmode none
attr source packetDropReasonIsQueueOverflow(packetDropped)
attr title "packet drops: queue overflow, sum(packetBytes)"
scalar Wireless_6_5m.hostA.wlan[0].mac.queue packetRemoved:count 0
attr interpolationmode none
attr title "packets removed, count"
scalar Wireless_6_5m.hostA.wlan[0].mac.queue packetRemoved:sum(packetBytes) 0
attr interpolationmode none
attr title "packets removed, sum(packetBytes)"
scalar Wireless_6_5m.hostA.wlan[0].mac numRetry 0
scalar Wireless_6_5m.hostA.wlan[0].mac numSentWithoutRetry 0
scalar Wireless_6_5m.hostA.wlan[0].mac numGivenUp 0
scalar Wireless_6_5m.hostA.wlan[0].mac numCollision 0
scalar Wireless_6_5m.hostA.wlan[0].mac numSent 0
scalar Wireless_6_5m.hostA.wlan[0].mac numReceived 6
scalar Wireless_6_5m.hostA.wlan[0].mac numSentBroadcast 1
scalar Wireless_6_5m.hostA.wlan[0].mac numReceivedBroadcast 0
scalar Wireless_6_5m.hostA.wlan[0].mac packetDropIncorrectlyReceived:count 0
attr interpolationmode none
attr source packetDropReasonIsIncorrectlyReceived(packetDropped)
attr title "packet drop: incorrectly received, count"
scalar Wireless_6_5m.hostA.wlan[0].mac packetDropIncorrectlyReceived:sum(packetBytes) 0
attr interpolationmode none
attr source packetDropReasonIsIncorrectlyReceived(packetDropped)
attr title "packet drop: incorrectly received, sum(packetBytes)"
scalar Wireless_6_5m.hostA.wlan[0].mac packetDropNotAddressedToUs:count 0
attr interpolationmode none
attr source packetDropReasonIsNotAddressedToUs(packetDropped)
attr title "packet drop: not addressed to us, count"
scalar Wireless_6_5m.hostA.wlan[0].mac packetDropNotAddressedToUs:sum(packetBytes) 0
attr interpolationmode none
attr source packetDropReasonIsNotAddressedToUs(packetDropped)
attr title "packet drop: not addressed to us, sum(packetBytes)"
scalar Wireless_6_5m.hostA.wlan[0].mac packetDropQueueOverflow:count 0
attr interpolationmode none
attr source packetDropReasonIsQueueOverflow(packetDropped)
attr title "packet drop: queue overflow, count"
scalar Wireless_6_5m.hostA.wlan[0].mac packetDropQueueOverflow:sum(packetBytes) 0
attr interpolationmode none
attr source packetDropReasonIsQueueOverflow(packetDropped)
attr title "packet drop: queue overflow, sum(packetBytes)"
scalar Wireless_6_5m.hostA.wlan[0].mac packetDropRetryLimitReached:count 0
attr interpolationmode none
attr source packetDropReasonIsRetryLimitReached(packetDropped)
attr title "packet drop: retry limit reached, count"
scalar Wireless_6_5m.hostA.wlan[0].mac packetDropRetryLimitReached:sum(packetBytes) 0
attr interpolationmode none
attr source packetDropReasonIsRetryLimitReached(packetDropped)
attr title "packet drop: retry limit reached, sum(packetBytes)"
scalar Wireless_6_5m.hostA.wlan[0].mac linkBroken:count 0
attr interpolationmode none
attr source linkBroken
attr title "link break, count"
scalar Wireless_6_5m.hostA.wlan[0].radio radioMode:count 17
attr interpolationmode sample-hold
attr source radioModeChanged
attr title "Radio mode, count"
scalar Wireless_6_5m.hostA.wlan[0].radio receptionState:count 27
attr interpolationmode sample-hold
attr source receptionStateChanged
attr title "Radio reception state, count"
scalar Wireless_6_5m.hostA.wlan[0].radio transmissionState:count 28
attr interpolationmode sample-hold
attr source transmissionStateChanged
attr title "Radio transmission state, count"
statistic Wireless_6_5m.hostA.wlan[0].radio minSnir:histogram
field count 6
field mean 7968.0071198577
field stddev 0
field min 7968.0071197861
field max 7968.0071200008
field sum 47808.042719146
field sqrsum 380934824.77262
attr source minimumSnir(packetSentToUpper)
attr title "Min SNIR, histogram"
bin	-inf	0
bin	7968.00711973	0
bin	7968.007119735	0
bin	7968.00711974	0
bin	7968.007119745	0
bin	7968.00711975	0
bin	7968.007119755	0
bin	7968.00711976	0
bin	7968.007119765	0
bin	7968.00711977	0
bin	7968.007119775	0
bin	7968.00711978	0
bin	7968.007119785	4
bin	7968.00711979	0
bin	7968.007119795	0
bin	7968.0071198	0
bin	7968.007119805	0
bin	7968.00711981	0
bin	7968.007119815	0
bin	7968.00711982	0
bin	7968.007119825	0
bin	7968.00711983	0
bin	7968.007119835	0
bin	7968.00711984	0
bin	7968.007119845	0
bin	7968.00711985	0
bin	7968.007119855	0
bin	7968.00711986	0
bin	7968.007119865	0
bin	7968.00711987	0
bin	7968.007119875	0
bin	7968.00711988	0
bin	7968.007119885	0
bin	7968.00711989	0
bin	7968.007119895	0
bin	7968.0071199	0
bin	7968.007119905	0
bin	7968.00711991	0
bin	7968.007119915	0
bin	7968.00711992	0
bin	7968.007119925	0
bin	7968.00711993	0
bin	7968.007119935	0
bin	7968.00711994	0
bin	7968.007119945	0
bin	7968.00711995	0
bin	7968.007119955	0
bin	7968.00711996	0
bin	7968.007119965	0
bin	7968.00711997	0
bin	7968.007119975	0
bin	7968.00711998	0
bin	7968.007119985	0
bin	7968.00711999	0
bin	7968.007119995	0
bin	7968.00712	2
bin	7968.007120005	0
bin	7968.00712001	0
bin	7968.007120015	0
bin	7968.00712002	0
bin	7968.007120025	0
bin	7968.00712003	0
bin	7968.007120035	0
bin	7968.00712004	0
bin	7968.007120045	0
bin	7968.00712005	0
bin	7968.007120055	0
statistic Wireless_6_5m.hostA.wlan[0].radio packetErrorRate:histogram
field count 6
field mean 0
field stddev 0
field min 0
field max 0
field sum 0
field sqrsum 0
attr source packetErrorRate(packetSentToUpper)
attr title "Packet error rate, histogram"
bin	-inf	0
bin	-0.5	0
bin	-0.48	0
bin	-0.46	0
bin	-0.44	0
bin	-0.42	0
bin	-0.4	0
bin	-0.38	0
bin	-0.36	0
bin	-0.34	0
bin	-0.32	0
bin	-0.3	0
bin	-0.28	0
bin	-0.26	0
bin	-0.24	0
bin	-0.22	0
bin	-0.2	0
bin	-0.18	0
bin	-0.16	0
bin	-0.14	0
bin	-0.12	0
bin	-0.1	0
bin	-0.08	0
bin	-0.06	0
bin	-0.04	0
bin	-0.02	0
bin	0	6
bin	0.02	0
bin	0.04	0
bin	0.06	0
bin	0.08	0
bin	0.1	0
bin	0.12	0
bin	0.14	0
bin	0.16	0
bin	0.18	0
bin	0.2	0
bin	0.22	0
bin	0.24	0
bin	0.26	0
bin	0.28	0
bin	0.3	0
bin	0.32	0
bin	0.34	0
bin	0.36	0
bin	0.38	0
bin	0.4	0
bin	0.42	0
bin	0.44	0
bin	0.46	0
bin	0.48	0
bin	0.5	0
statistic Wireless_6_5m.hostA.wlan[0].radio bitErrorRate:histogram
field count 6
field mean 0
field stddev 0
field min 0
field max 0
field sum 0
field sqrsum 0
attr source bitErrorRate(packetSentToUpper)
attr title "Bit error rate, histogram"
bin	-inf	0
bin	-0.5	0
bin	-0.48	0
bin	-0.46	0
bin	-0.44	0
bin	-0.42	0
bin	-0.4	0
bin	-0.38	0
bin	-0.36	0
bin	-0.34	0
bin	-0.32	0
bin	-0.3	0
bin	-0.28	0
bin	-0.26	0
bin	-0.24	0
bin	-0.22	0
bin	-0.2	0
bin	-0.18	0
bin	-0.16	0
bin	-0.14	0
bin	-0.12	0
bin	-0.1	0
bin	-0.08	0
bin	-0.06	0
bin	-0.04	0
bin	-0.02	0
bin	0	6
bin	0.02	0
bin	0.04	0
bin	0.06	0
bin	0.08	0
bin	0.1	0
bin	0.12	0
bin	0.14	0
bin	0.16	0
bin	0.18	0
bin	0.2	0
bin	0.22	0
bin	0.24	0
bin	0.26	0
bin	0.28	0
bin	0.3	0
bin	0.32	0
bin	0.34	0
bin	0.36	0
bin	0.38	0
bin	0.4	0
bin	0.42	0
bin	0.44	0
bin	0.46	0
bin	0.48	0
bin	0.5	0
statistic Wireless_6_5m.hostA.wlan[0].radio symbolErrorRate:histogram
field count 6
field mean 0
field stddev 0
field min 0
field max 0
field sum 0
field sqrsum 0
attr source symbolErrorRate(packetSentToUpper)
attr title "Symbol error rate, histogram"
bin	-inf	0
bin	-0.5	0
bin	-0.48	0
bin	-0.46	0
bin	-0.44	0
bin	-0.42	0
bin	-0.4	0
bin	-0.38	0
bin	-0.36	0
bin	-0.34	0
bin	-0.32	0
bin	-0.3	0
bin	-0.28	0
bin	-0.26	0
bin	-0.24	0
bin	-0.22	0
bin	-0.2	0
bin	-0.18	0
bin	-0.16	0
bin	-0.14	0
bin	-0.12	0
bin	-0.1	0
bin	-0.08	0
bin	-0.06	0
bin	-0.04	0
bin	-0.02	0
bin	0	6
bin	0.02	0
bin	0.04	0
bin	0.06	0
bin	0.08	0
bin	0.1	0
bin	0.12	0
bin	0.14	0
bin	0.16	0
bin	0.18	0
bin	0.2	0
bin	0.22	0
bin	0.24	0
bin	0.26	0
bin	0.28	0
bin	0.3	0
bin	0.32	0
bin	0.34	0
bin	0.36	0
bin	0.38	0
bin	0.4	0
bin	0.42	0
bin	0.44	0
bin	0.46	0
bin	0.48	0
bin	0.5	0
scalar Wireless_6_5m.hostA.ipv4.ip packetDropAddressResolutionFailed:count 0
attr interpolationmode none
attr source packetDropReasonIsAddressResolutionFailed(packetDropped)
attr title "packet drop: address resolution failed, count"
scalar Wireless_6_5m.hostA.ipv4.ip packetDropAddressResolutionFailed:sum(packetBytes) 0
attr interpolationmode none
attr source packetDropReasonIsAddressResolutionFailed(packetDropped)
attr title "packet drop: address resolution failed, sum(packetBytes)"
scalar Wireless_6_5m.hostA.ipv4.ip packetDropHopLimitReached:count 0
attr interpolationmode none
attr source packetDropReasonIsHopLimitReached(packetDropped)
attr title "packet drop: hop limit reached, count"
scalar Wireless_6_5m.hostA.ipv4.ip packetDropHopLimitReached:sum(packetBytes) 0
attr interpolationmode none
attr source packetDropReasonIsHopLimitReached(packetDropped)
attr title "packet drop: hop limit reached, sum(packetBytes)"
scalar Wireless_6_5m.hostA.ipv4.ip packetDropForwardingDisabled:count 0
attr interpolationmode none
attr source packetDropReasonIsForwardingDisabled(packetDropped)
attr title "packet drop: forwarding disabled, count"
scalar Wireless_6_5m.hostA.ipv4.ip packetDropForwardingDisabled:sum(packetBytes) 0
attr interpolationmode none
attr source packetDropReasonIsForwardingDisabled(packetDropped)
attr title "packet drop: forwarding disabled, sum(packetBytes)"
scalar Wireless_6_5m.hostA.ipv4.ip packetDropNoInterfaceFound:count 0
attr interpolationmode none
attr source packetDropReasonIsNoInterfaceFound(packetDropped)
attr title "packet drop: no interface found, count"
scalar Wireless_6_5m.hostA.ipv4.ip packetDropNoInterfaceFound:sum(packetBytes) 0
attr interpolationmode none
attr source packetDropReasonIsNoInterfaceFound(packetDropped)
attr title "packet drop: no interface found, sum(packetBytes)"
scalar Wireless_6_5m.hostA.ipv4.ip packetDropNoRouteFound:count 0
attr interpolationmode none
attr source packetDropReasonIsNoRouteFound(packetDropped)
attr title "packet drop: no route found, count"
scalar Wireless_6_5m.hostA.ipv4.ip packetDropNoRouteFound:sum(packetBytes) 0
attr interpolationmode none
attr source packetDropReasonIsNoRouteFound(packetDropped)
attr title "packet drop: no route found, sum(packetBytes)"
scalar Wireless_6_5m.hostA.ipv4.ip packetDropUndefined:count 0
attr interpolationmode none
attr source packetDropReasonIsUndefined(packetDropped)
attr title "packet drop: undefined, count"
scalar Wireless_6_5m.hostA.ipv4.ip packetDropUndefined:sum(packetBytes) 0
attr interpolationmode none
attr source packetDropReasonIsUndefined(packetDropped)
attr title "packet drop: undefined, sum(packetBytes)"
scalar Wireless_6_5m.hostA.udp packetReceived:count 7
attr interpolationmode none
attr source packetReceived
attr title "packets received, count"
scalar Wireless_6_5m.hostA.udp packetReceived:sum(packetBytes) 84
attr interpolationmode none
attr source packetReceived
attr title "packets received, sum(packetBytes)"
scalar Wireless_6_5m.hostA.udp packetSent:count 1
attr interpolationmode none
attr source packetSent
attr title "packets sent, count"
scalar Wireless_6_5m.hostA.udp packetSent:sum(packetBytes) 12
attr interpolationmode none
attr source packetSent
attr title "packets sent, sum(packetBytes)"
scalar Wireless_6_5m.hostA.udp passedUpPk:count 6
attr interpolationmode none
attr source packetSentToUpper
attr title "packets passed up, count"
scalar Wireless_6_5m.hostA.udp droppedPkWrongPort:count 1
attr interpolationmode none
attr source packetDropReasonIsNoPortFound(packetDropped)
attr title "packets dropped (wrong port), count"
scalar Wireless_6_5m.hostA.udp droppedPkBadChecksum:count 0
attr interpolationmode none
attr source packetDropReasonIsIncorrectlyReceived(packetDropped)
attr title "packets dropped (checksum error), count"
scalar Wireless_6_5m.hostB.lo[0].lo rcvdPkFromHl:count 0
attr interpolationmode none
attr source packetReceivedFromUpper
attr title "packets received from higher layer, count"
scalar Wireless_6_5m.hostB.lo[0].lo rcvdPkFromHl:sum(packetBytes) 0
attr interpolationmode none
attr source packetReceivedFromUpper
attr title "packets received from higher layer, sum(packetBytes)"
scalar Wireless_6_5m.hostB.lo[0].lo passedUpPk:count 0
attr interpolationmode none
attr source packetSentToUpper
attr title "packets passed to higher layer, count"
scalar Wireless_6_5m.hostB.lo[0].lo passedUpPk:sum(packetBytes) 0
attr interpolationmode none
attr source packetSentToUpper
attr title "packets passed to higher layer, sum(packetBytes)"
scalar Wireless_6_5m.hostB.wlan[0].mac.queue packetPopped:count 1
attr interpolationmode none
attr title "packet popped, count"
scalar Wireless_6_5m.hostB.wlan[0].mac.queue packetPopped:sum(packetBytes) 59
attr interpolationmode none
attr title "packet popped, sum(packetBytes)"
statistic Wireless_6_5m.hostB.wlan[0].mac.queue queueingTime:histogram
field count 1
field mean 0
field stddev -nan
field min 0
field max 0
field sum 0
field sqrsum 0
attr interpolationmode none
attr source queueingTime(packetPopped)
attr title "queueing times, histogram"
attr unit s
bin	-inf	0
bin	-0.5	0
bin	-0.48	0
bin	-0.46	0
bin	-0.44	0
bin	-0.42	0
bin	-0.4	0
bin	-0.38	0
bin	-0.36	0
bin	-0.34	0
bin	-0.32	0
bin	-0.3	0
bin	-0.28	0
bin	-0.26	0
bin	-0.24	0
bin	-0.22	0
bin	-0.2	0
bin	-0.18	0
bin	-0.16	0
bin	-0.14	0
bin	-0.12	0
bin	-0.1	0
bin	-0.08	0
bin	-0.06	0
bin	-0.04	0
bin	-0.02	0
bin	0	1
bin	0.02	0
bin	0.04	0
bin	0.06	0
bin	0.08	0
bin	0.1	0
bin	0.12	0
bin	0.14	0
bin	0.16	0
bin	0.18	0
bin	0.2	0
bin	0.22	0
bin	0.24	0
bin	0.26	0
bin	0.28	0
bin	0.3	0
bin	0.32	0
bin	0.34	0
bin	0.36	0
bin	0.38	0
bin	0.4	0
bin	0.42	0
bin	0.44	0
bin	0.46	0
bin	0.48	0
bin	0.5	0
scalar Wireless_6_5m.hostB.wlan[0].mac.queue queueLength:max 1
attr interpolationmode sample-hold
attr source "count(packetPushed) - count(packetPopped) - count(packetRemoved) - count(packetDropped)"
attr title "queue length, max"
scalar Wireless_6_5m.hostB.wlan[0].mac.queue queueLength:timeavg 0
attr interpolationmode sample-hold
attr source "count(packetPushed) - count(packetPopped) - count(packetRemoved) - count(packetDropped)"
attr title "queue length, timeavg"
scalar Wireless_6_5m.hostB.wlan[0].mac.queue packetPushed:count 1
attr interpolationmode none
attr title "packet pushed, count"
scalar Wireless_6_5m.hostB.wlan[0].mac.queue packetPushed:sum(packetBytes) 59
attr interpolationmode none
attr title "packet pushed, sum(packetBytes)"
scalar Wireless_6_5m.hostB.wlan[0].mac.queue packetDropQueueOverflow:count 0
attr interpolationmode none
attr source packetDropReasonIsQueueOverflow(packetDropped)
attr title "packet drops: queue overflow, count"
scalar Wireless_6_5m.hostB.wlan[0].mac.queue packetDropQueueOverflow:sum(packetBytes) 0
attr interpolationmode none
attr source packetDropReasonIsQueueOverflow(packetDropped)
attr title "packet drops: queue overflow, sum(packetBytes)"
scalar Wireless_6_5m.hostB.wlan[0].mac.queue packetRemoved:count 0
attr interpolationmode none
attr title "packets removed, count"
scalar Wireless_6_5m.hostB.wlan[0].mac.queue packetRemoved:sum(packetBytes) 0
attr interpolationmode none
attr title "packets removed, sum(packetBytes)"
scalar Wireless_6_5m.hostB.wlan[0].mac numRetry 0
scalar Wireless_6_5m.hostB.wlan[0].mac numSentWithoutRetry 1
scalar Wireless_6_5m.hostB.wlan[0].mac numGivenUp 0
scalar Wireless_6_5m.hostB.wlan[0].mac numCollision 0
scalar Wireless_6_5m.hostB.wlan[0].mac numSent 1
scalar Wireless_6_5m.hostB.wlan[0].mac numReceived 0
scalar Wireless_6_5m.hostB.wlan[0].mac numSentBroadcast 0
scalar Wireless_6_5m.hostB.wlan[0].mac numReceivedBroadcast 1
scalar Wireless_6_5m.hostB.wlan[0].mac packetDropIncorrectlyReceived:count 0
attr interpolationmode none
attr source packetDropReasonIsIncorrectlyReceived(packetDropped)
attr title "packet drop: incorrectly received, count"
scalar Wireless_6_5m.hostB.wlan[0].mac packetDropIncorrectlyReceived:sum(packetBytes) 0
attr interpolationmode none
attr source packetDropReasonIsIncorrectlyReceived(packetDropped)
attr title "packet drop: incorrectly received, sum(packetBytes)"
scalar Wireless_6_5m.hostB.wlan[0].mac packetDropNotAddressedToUs:count 5
attr interpolationmode none
attr source packetDropReasonIsNotAddressedToUs(packetDropped)
attr title "packet drop: not addressed to us, count"
scalar Wireless_6_5m.hostB.wlan[0].mac packetDropNotAddressedToUs:sum(packetBytes) 295
attr interpolationmode none
attr source packetDropReasonIsNotAddressedToUs(packetDropped)
attr title "packet drop: not addressed to us, sum(packetBytes)"
scalar Wireless_6_5m.hostB.wlan[0].mac packetDropQueueOverflow:count 0
attr interpolationmode none
attr source packetDropReasonIsQueueOverflow(packetDropped)
attr title "packet drop: queue overflow, count"
scalar Wireless_6_5m.hostB.wlan[0].mac packetDropQueueOverflow:sum(packetBytes) 0
attr interpolationmode none
attr source packetDropReasonIsQueueOverflow(packetDropped)
attr title "packet drop: queue overflow, sum(packetBytes)"
scalar Wireless_6_5m.hostB.wlan[0].mac packetDropRetryLimitReached:count 0
attr interpolationmode none
attr source packetDropReasonIsRetryLimitReached(packetDropped)
attr title "packet drop: retry limit reached, count"
scalar Wireless_6_5m.hostB.wlan[0].mac packetDropRetryLimitReached:sum(packetBytes) 0
attr interpolationmode none
attr source packetDropReasonIsRetryLimitReached(packetDropped)
attr title "packet drop: retry limit reached, sum(packetBytes)"
scalar Wireless_6_5m.hostB.wlan[0].mac linkBroken:count 0
attr interpolationmode none
attr source linkBroken
attr title "link break, count"
scalar Wireless_6_5m.hostB.wlan[0].radio radioMode:count 5
attr interpolationmode sample-hold
attr source radioModeChanged
attr title "Radio mode, count"
scalar Wireless_6_5m.hostB.wlan[0].radio receptionState:count 27
attr interpolationmode sample-hold
attr source receptionStateChanged
attr title "Radio reception state, count"
scalar Wireless_6_5m.hostB.wlan[0].radio transmissionState:count 4
attr interpolationmode sample-hold
attr source transmissionStateChanged
attr title "Radio transmission state, count"
statistic Wireless_6_5m.hostB.wlan[0].radio minSnir:histogram
field count 12
field mean 6584.6725505165
field stddev 2507.8794792683
field min 1992.0017800002
field max 7968.0071200008
field sum 79016.070606198
field sqrsum 589479005.47819
attr source minimumSnir(packetSentToUpper)
attr title "Min SNIR, histogram"
bin	-inf	0
bin	400	0
bin	500	0
bin	600	0
bin	700	0
bin	800	0
bin	900	0
bin	1000	0
bin	1100	0
bin	1200	0
bin	1300	0
bin	1400	0
bin	1500	0
bin	1600	0
bin	1700	0
bin	1800	0
bin	1900	1
bin	2000	0
bin	2100	0
bin	2200	0
bin	2300	0
bin	2400	0
bin	2500	0
bin	2600	2
bin	2700	0
bin	2800	0
bin	2900	0
bin	3000	0
bin	3100	0
bin	3200	0
bin	3300	0
bin	3400	0
bin	3500	0
bin	3600	0
bin	3700	0
bin	3800	0
bin	3900	0
bin	4000	0
bin	4100	0
bin	4200	0
bin	4300	0
bin	4400	0
bin	4500	0
bin	4600	0
bin	4700	0
bin	4800	0
bin	4900	0
bin	5000	0
bin	5100	0
bin	5200	0
bin	5300	0
bin	5400	0
bin	5500	0
bin	5600	0
bin	5700	0
bin	5800	0
bin	5900	0
bin	6000	0
bin	6100	0
bin	6200	0
bin	6300	0
bin	6400	0
bin	6500	0
bin	6600	0
bin	6700	0
bin	6800	0
bin	6900	0
bin	7000	0
bin	7100	0
bin	7200	0
bin	7300	0
bin	7400	0
bin	7500	0
bin	7600	0
bin	7700	0
bin	7800	0
bin	7900	9
bin	8000	0
bin	8100	0
bin	8200	0
bin	8300	0
bin	8400	0
bin	8500	0
bin	8600	0
bin	8700	0
bin	8800	0
bin	8900	0
bin	9000	0
bin	9100	0
bin	9200	0
bin	9300	0
bin	9400	0
bin	9500	0
statistic Wireless_6_5m.hostB.wlan[0].radio packetErrorRate:histogram
field count 12
field mean 0
field stddev 0
field min 0
field max 0
field sum 0
field sqrsum 0
attr source packetErrorRate(packetSentToUpper)
attr title "Packet error rate, histogram"
bin	-inf	0
bin	-0.5	0
bin	-0.48	0
bin	-0.46	0
bin	-0.44	0
bin	-0.42	0
bin	-0.4	0
bin	-0.38	0
bin	-0.36	0
bin	-0.34	0
bin	-0.32	0
bin	-0.3	0
bin	-0.28	0
bin	-0.26	0
bin	-0.24	0
bin	-0.22	0
bin	-0.2	0
bin	-0.18	0
bin	-0.16	0
bin	-0.14	0
bin	-0.12	0
bin	-0.1	0
bin	-0.08	0
bin	-0.06	0
bin	-0.04	0
bin	-0.02	0
bin	0	12
bin	0.02	0
bin	0.04	0
bin	0.06	0
bin	0.08	0
bin	0.1	0
bin	0.12	0
bin	0.14	0
bin	0.16	0
bin	0.18	0
bin	0.2	0
bin	0.22	0
bin	0.24	0
bin	0.26	0
bin	0.28	0
bin	0.3	0
bin	0.32	0
bin	0.34	0
bin	0.36	0
bin	0.38	0
bin	0.4	0
bin	0.42	0
bin	0.44	0
bin	0.46	0
bin	0.48	0
bin	0.5	0
statistic Wireless_6_5m.hostB.wlan[0].radio bitErrorRate:histogram
field count 12
field mean 0
field stddev 0
field min 0
field max 0
field sum 0
field sqrsum 0
attr source bitErrorRate(packetSentToUpper)
attr title "Bit error rate, histogram"
bin	-inf	0
bin	-0.5	0
bin	-0.48	0
bin	-0.46	0
bin	-0.44	0
bin	-0.42	0
bin	-0.4	0
bin	-0.38	0
bin	-0.36	0
bin	-0.34	0
bin	-0.32	0
bin	-0.3	0
bin	-0.28	0
bin	-0.26	0
bin	-0.24	0
bin	-0.22	0
bin	-0.2	0
bin	-0.18	0
bin	-0.16	0
bin	-0.14	0
bin	-0.12	0
bin	-0.1	0
bin	-0.08	0
bin	-0.06	0
bin	-0.04	0
bin	-0.02	0
bin	0	12
bin	0.02	0
bin	0.04	0
bin	0.06	0
bin	0.08	0
bin	0.1	0
bin	0.12	0
bin	0.14	0
bin	0.16	0
bin	0.18	0
bin	0.2	0
bin	0.22	0
bin	0.24	0
bin	0.26	0
bin	0.28	0
bin	0.3	0
bin	0.32	0
bin	0.34	0
bin	0.36	0
bin	0.38	0
bin	0.4	0
bin	0.42	0
bin	0.44	0
bin	0.46	0
bin	0.48	0
bin	0.5	0
statistic Wireless_6_5m.hostB.wlan[0].radio symbolErrorRate:histogram
field count 12
field mean 0
field stddev 0
field min 0
field max 0
field sum 0
field sqrsum 0
attr source symbolErrorRate(packetSentToUpper)
attr title "Symbol error rate, histogram"
bin	-inf	0
bin	-0.5	0
bin	-0.48	0
bin	-0.46	0
bin	-0.44	0
bin	-0.42	0
bin	-0.4	0
bin	-0.38	0
bin	-0.36	0
bin	-0.34	0
bin	-0.32	0
bin	-0.3	0
bin	-0.28	0
bin	-0.26	0
bin	-0.24	0
bin	-0.22	0
bin	-0.2	0
bin	-0.18	0
bin	-0.16	0
bin	-0.14	0
bin	-0.12	0
bin	-0.1	0
bin	-0.08	0
bin	-0.06	0
bin	-0.04	0
bin	-0.02	0
bin	0	12
bin	0.02	0
bin	0.04	0
bin	0.06	0
bin	0.08	0
bin	0.1	0
bin	0.12	0
bin	0.14	0
bin	0.16	0
bin	0.18	0
bin	0.2	0
bin	0.22	0
bin	0.24	0
bin	0.26	0
bin	0.28	0
bin	0.3	0
bin	0.32	0
bin	0.34	0
bin	0.36	0
bin	0.38	0
bin	0.4	0
bin	0.42	0
bin	0.44	0
bin	0.46	0
bin	0.48	0
bin	0.5	0
scalar Wireless_6_5m.hostB.ipv4.ip packetDropAddressResolutionFailed:count 0
attr interpolationmode none
attr source packetDropReasonIsAddressResolutionFailed(packetDropped)
attr title "packet drop: address resolution failed, count"
scalar Wireless_6_5m.hostB.ipv4.ip packetDropAddressResolutionFailed:sum(packetBytes) 0
attr interpolationmode none
attr source packetDropReasonIsAddressResolutionFailed(packetDropped)
attr title "packet drop: address resolution failed, sum(packetBytes)"
scalar Wireless_6_5m.hostB.ipv4.ip packetDropHopLimitReached:count 0
attr interpolationmode none
attr source packetDropReasonIsHopLimitReached(packetDropped)
attr title "packet drop: hop limit reached, count"
scalar Wireless_6_5m.hostB.ipv4.ip packetDropHopLimitReached:sum(packetBytes) 0
attr interpolationmode none
attr source packetDropReasonIsHopLimitReached(packetDropped)
attr title "packet drop: hop limit reached, sum(packetBytes)"
scalar Wireless_6_5m.hostB.ipv4.ip packetDropForwardingDisabled:count 0
attr interpolationmode none
attr source packetDropReasonIsForwardingDisabled(packetDropped)
attr title "packet drop: forwarding disabled, count"
scalar Wireless_6_5m.hostB.ipv4.ip packetDropForwardingDisabled:sum(packetBytes) 0
attr interpolationmode none
attr source packetDropReasonIsForwardingDisabled(packetDropped)
attr title "packet drop: forwarding disabled, sum(packetBytes)"
scalar Wireless_6_5m.hostB.ipv4.ip packetDropNoInterfaceFound:count 0
attr interpolationmode none
attr source packetDropReasonIsNoInterfaceFound(packetDropped)
attr title "packet drop: no interface found, count"
scalar Wireless_6_5m.hostB.ipv4.ip packetDropNoInterfaceFound:sum(packetBytes) 0
attr interpolationmode none
attr source packetDropReasonIsNoInterfaceFound(packetDropped)
attr title "packet drop: no interface found, sum(packetBytes)"
scalar Wireless_6_5m.hostB.ipv4.ip packetDropNoRouteFound:count 0
attr interpolationmode none
attr source packetDropReasonIsNoRouteFound(packetDropped)
attr title "packet drop: no route found, count"
scalar Wireless_6_5m.hostB.ipv4.ip packetDropNoRouteFound:sum(packetBytes) 0
attr interpolationmode none
attr source packetDropReasonIsNoRouteFound(packetDropped)
attr title "packet drop: no route found, sum(packetBytes)"
scalar Wireless_6_5m.hostB.ipv4.ip packetDropUndefined:count 0
attr interpolationmode none
attr source packetDropReasonIsUndefined(packetDropped)
attr title "packet drop: undefined, count"
scalar Wireless_6_5m.hostB.ipv4.ip packetDropUndefined:sum(packetBytes) 0
attr interpolationmode none
attr source packetDropReasonIsUndefined(packetDropped)
attr title "packet drop: undefined, sum(packetBytes)"
scalar Wireless_6_5m.hostB.udp packetReceived:count 1
attr interpolationmode none
attr source packetReceived
attr title "packets received, count"
scalar Wireless_6_5m.hostB.udp packetReceived:sum(packetBytes) 12
attr interpolationmode none
attr source packetReceived
attr title "packets received, sum(packetBytes)"
scalar Wireless_6_5m.hostB.udp packetSent:count 1
attr interpolationmode none
attr source packetSent
attr title "packets sent, count"
scalar Wireless_6_5m.hostB.udp packetSent:sum(packetBytes) 12
attr interpolationmode none
attr source packetSent
attr title "packets sent, sum(packetBytes)"
scalar Wireless_6_5m.hostB.udp passedUpPk:count 1
attr interpolationmode none
attr source packetSentToUpper
attr title "packets passed up, count"
scalar Wireless_6_5m.hostB.udp droppedPkWrongPort:count 0
attr interpolationmode none
attr source packetDropReasonIsNoPortFound(packetDropped)
attr title "packets dropped (wrong port), count"
scalar Wireless_6_5m.hostB.udp droppedPkBadChecksum:count 0
attr interpolationmode none
attr source packetDropReasonIsIncorrectlyReceived(packetDropped)
attr title "packets dropped (checksum error), count"
scalar Wireless_6_5m.hostC.lo[0].lo rcvdPkFromHl:count 0
attr interpolationmode none
attr source packetReceivedFromUpper
attr title "packets received from higher layer, count"
scalar Wireless_6_5m.hostC.lo[0].lo rcvdPkFromHl:sum(packetBytes) 0
attr interpolationmode none
attr source packetReceivedFromUpper
attr title "packets received from higher layer, sum(packetBytes)"
scalar Wireless_6_5m.hostC.lo[0].lo passedUpPk:count 0
attr interpolationmode none
attr source packetSentToUpper
attr title "packets passed to higher layer, count"
scalar Wireless_6_5m.hostC.lo[0].lo passedUpPk:sum(packetBytes) 0
attr interpolationmode none
attr source packetSentToUpper
attr title "packets passed to higher layer, sum(packetBytes)"
scalar Wireless_6_5m.hostC.wlan[0].mac.queue packetPopped:count 1
attr interpolationmode none
attr title "packet popped, count"
scalar Wireless_6_5m.hostC.wlan[0].mac.queue packetPopped:sum(packetBytes) 59
attr interpolationmode none
attr title "packet popped, sum(packetBytes)"
statistic Wireless_6_5m.hostC.wlan[0].mac.queue queueingTime:histogram
field count 1
field mean 0
field stddev -nan
field min 0
field max 0
field sum 0
field sqrsum 0
attr interpolationmode none
attr source queueingTime(packetPopped)
attr title "queueing times, histogram"
attr unit s
bin	-inf	0
bin	-0.5	0
bin	-0.48	0
bin	-0.46	0
bin	-0.44	0
bin	-0.42	0
bin	-0.4	0
bin	-0.38	0
bin	-0.36	0
bin	-0.34	0
bin	-0.32	0
bin	-0.3	0
bin	-0.28	0
bin	-0.26	0
bin	-0.24	0
bin	-0.22	0
bin	-0.2	0
bin	-0.18	0
bin	-0.16	0
bin	-0.14	0
bin	-0.12	0
bin	-0.1	0
bin	-0.08	0
bin	-0.06	0
bin	-0.04	0
bin	-0.02	0
bin	0	1
bin	0.02	0
bin	0.04	0
bin	0.06	0
bin	0.08	0
bin	0.1	0
bin	0.12	0
bin	0.14	0
bin	0.16	0
bin	0.18	0
bin	0.2	0
bin	0.22	0
bin	0.24	0
bin	0.26	0
bin	0.28	0
bin	0.3	0
bin	0.32	0
bin	0.34	0
bin	0.36	0
bin	0.38	0
bin	0.4	0
bin	0.42	0
bin	0.44	0
bin	0.46	0
bin	0.48	0
bin	0.5	0
scalar Wireless_6_5m.hostC.wlan[0].mac.queue queueLength:max 1
attr interpolationmode sample-hold
attr source "count(packetPushed) - count(packetPopped) - count(packetRemoved) - count(packetDropped)"
attr title "queue length, max"
scalar Wireless_6_5m.hostC.wlan[0].mac.queue queueLength:timeavg 0
attr interpolationmode sample-hold
attr source "count(packetPushed) - count(packetPopped) - count(packetRemoved) - count(packetDropped)"
attr title "queue length, timeavg"
scalar Wireless_6_5m.hostC.wlan[0].mac.queue packetPushed:count 1
attr interpolationmode none
attr title "packet pushed, count"
scalar Wireless_6_5m.hostC.wlan[0].mac.queue packetPushed:sum(packetBytes) 59
attr interpolationmode none
attr title "packet pushed, sum(packetBytes)"
scalar Wireless_6_5m.hostC.wlan[0].mac.queue packetDropQueueOverflow:count 0
attr interpolationmode none
attr source packetDropReasonIsQueueOverflow(packetDropped)
attr title "packet drops: queue overflow, count"
scalar Wireless_6_5m.hostC.wlan[0].mac.queue packetDropQueueOverflow:sum(packetBytes) 0
attr interpolationmode none
attr source packetDropReasonIsQueueOverflow(packetDropped)
attr title "packet drops: queue overflow, sum(packetBytes)"
scalar Wireless_6_5m.hostC.wlan[0].mac.queue packetRemoved:count 0
attr interpolationmode none
attr title "packets removed, count"
scalar Wireless_6_5m.hostC.wlan[0].mac.queue packetRemoved:sum(packetBytes) 0
attr interpolationmode none
attr title "packets removed, sum(packetBytes)"
scalar Wireless_6_5m.hostC.wlan[0].mac numRetry 0
scalar Wireless_6_5m.hostC.wlan[0].mac numSentWithoutRetry 1
scalar Wireless_6_5m.hostC.wlan[0].mac numGivenUp 0
scalar Wireless_6_5m.hostC.wlan[0].mac numCollision 0
scalar Wireless_6_5m.hostC.wlan[0].mac numSent 1
scalar Wireless_6_5m.hostC.wlan[0].mac numReceived 0
scalar Wireless_6_5m.hostC.wlan[0].mac numSentBroadcast 0
scalar Wireless_6_5m.hostC.wlan[0].mac numReceivedBroadcast 1
scalar Wireless_6_5m.hostC.wlan[0].mac packetDropIncorrectlyReceived:count 0
attr interpolationmode none
attr source packetDropReasonIsIncorrectlyReceived(packetDropped)
attr title "packet drop: incorrectly received, count"
scalar Wireless_6_5m.hostC.wlan[0].mac packetDropIncorrectlyReceived:sum(packetBytes) 0
attr interpolationmode none
attr source packetDropReasonIsIncorrectlyReceived(packetDropped)
attr title "packet drop: incorrectly received, sum(packetBytes)"
scalar Wireless_6_5m.hostC.wlan[0].mac packetDropNotAddressedToUs:count 5
attr interpolationmode none
attr source packetDropReasonIsNotAddressedToUs(packetDropped)
attr title "packet drop: not addressed to us, count"
scalar Wireless_6_5m.hostC.wlan[0].mac packetDropNotAddressedToUs:sum(packetBytes) 295
attr interpolationmode none
attr source packetDropReasonIsNotAddressedToUs(packetDropped)
attr title "packet drop: not addressed to us, sum(packetBytes)"
scalar Wireless_6_5m.hostC.wlan[0].mac packetDropQueueOverflow:count 0
attr interpolationmode none
attr source packetDropReasonIsQueueOverflow(packetDropped)
attr title "packet drop: queue overflow, count"
scalar Wireless_6_5m.hostC.wlan[0].mac packetDropQueueOverflow:sum(packetBytes) 0
attr interpolationmode none
attr source packetDropReasonIsQueueOverflow(packetDropped)
attr title "packet drop: queue overflow, sum(packetBytes)"
scalar Wireless_6_5m.hostC.wlan[0].mac packetDropRetryLimitReached:count 0
attr interpolationmode none
attr source packetDropReasonIsRetryLimitReached(packetDropped)
attr title "packet drop: retry limit reached, count"
scalar Wireless_6_5m.hostC.wlan[0].mac packetDropRetryLimitReached:sum(packetBytes) 0
attr interpolationmode none
attr source packetDropReasonIsRetryLimitReached(packetDropped)
attr title "packet drop: retry limit reached, sum(packetBytes)"
scalar Wireless_6_5m.hostC.wlan[0].mac linkBroken:count 0
attr interpolationmode none
attr source linkBroken
attr title "link break, count"
scalar Wireless_6_5m.hostC.wlan[0].radio radioMode:count 5
attr interpolationmode sample-hold
attr source radioModeChanged
attr title "Radio mode, count"
scalar Wireless_6_5m.hostC.wlan[0].radio receptionState:count 27
attr interpolationmode sample-hold
attr source receptionStateChanged
attr title "Radio reception state, count"
scalar Wireless_6_5m.hostC.wlan[0].radio transmissionState:count 4
attr interpolationmode sample-hold
attr source transmissionStateChanged
attr title "Radio transmission state, count"
statistic Wireless_6_5m.hostC.wlan[0].radio minSnir:histogram
field count 12
field mean 6584.6725505165
field stddev 2507.8794792683
field min 1992.0017800002
field max 7968.0071200008
field sum 79016.070606198
field sqrsum 589479005.47819
attr source minimumSnir(packetSentToUpper)
attr title "Min SNIR, histogram"
bin	-inf	0
bin	400	0
bin	500	0
bin	600	0
bin	700	0
bin	800	0
bin	900	0
bin	1000	0
bin	1100	0
bin	1200	0
bin	1300	0
bin	1400	0
bin	1500	0
bin	1600	0
bin	1700	0
bin	1800	0
bin	1900	1
bin	2000	0
bin	2100	0
bin	2200	0
bin	2300	0
bin	2400	0
bin	2500	0
bin	2600	2
bin	2700	0
bin	2800	0
bin	2900	0
bin	3000	0
bin	3100	0
bin	3200	0
bin	3300	0
bin	3400	0
bin	3500	0
bin	3600	0
bin	3700	0
bin	3800	0
bin	3900	0
bin	4000	0
bin	4100	0
bin	4200	0
bin	4300	0
bin	4400	0
bin	4500	0
bin	4600	0
bin	4700	0
bin	4800	0
bin	4900	0
bin	5000	0
bin	5100	0
bin	5200	0
bin	5300	0
bin	5400	0
bin	5500	0
bin	5600	0
bin	5700	0
bin	5800	0
bin	5900	0
bin	6000	0
bin	6100	0
bin	6200	0
bin	6300	0
bin	6400	0
bin	6500	0
bin	6600	0
bin	6700	0
bin	6800	0
bin	6900	0
bin	7000	0
bin	7100	0
bin	7200	0
bin	7300	0
bin	7400	0
bin	7500	0
bin	7600	0
bin	7700	0
bin	7800	0
bin	7900	9
bin	8000	0
bin	8100	0
bin	8200	0
bin	8300	0
bin	8400	0
bin	8500	0
bin	8600	0
bin	8700	0
bin	8800	0
bin	8900	0
bin	9000	0
bin	9100	0
bin	9200	0
bin	9300	0
bin	9400	0
bin	9500	0
statistic Wireless_6_5m.hostC.wlan[0].radio packetErrorRate:histogram
field count 12
field mean 0
field stddev 0
field min 0
field max 0
field sum 0
field sqrsum 0
attr source packetErrorRate(packetSentToUpper)
attr title "Packet error rate, histogram"
bin	-inf	0
bin	-0.5	0
bin	-0.48	0
bin	-0.46	0
bin	-0.44	0
bin	-0.42	0
bin	-0.4	0
bin	-0.38	0
bin	-0.36	0
bin	-0.34	0
bin	-0.32	0
bin	-0.3	0
bin	-0.28	0
bin	-0.26	0
bin	-0.24	0
bin	-0.22	0
bin	-0.2	0
bin	-0.18	0
bin	-0.16	0
bin	-0.14	0
bin	-0.12	0
bin	-0.1	0
bin	-0.08	0
bin	-0.06	0
bin	-0.04	0
bin	-0.02	0
bin	0	12
bin	0.02	0
bin	0.04	0
bin	0.06	0
bin	0.08	0
bin	0.1	0
bin	0.12	0
bin	0.14	0
bin	0.16	0
bin	0.18	0
bin	0.2	0
bin	0.22	0
bin	0.24	0
bin	0.26	0
bin	0.28	0
bin	0.3	0
bin	0.32	0
bin	0.34	0
bin	0.36	0
bin	0.38	0
bin	0.4	0
bin	0.42	0
bin	0.44	0
bin	0.46	0
bin	0.48	0
bin	0.5	0
statistic Wireless_6_5m.hostC.wlan[0].radio bitErrorRate:histogram
field count 12
field mean 0
field stddev 0
field min 0
field max 0
field sum 0
field sqrsum 0
attr source bitErrorRate(packetSentToUpper)
attr title "Bit error rate, histogram"
bin	-inf	0
bin	-0.5	0
bin	-0.48	0
bin	-0.46	0
bin	-0.44	0
bin	-0.42	0
bin	-0.4	0
bin	-0.38	0
bin	-0.36	0
bin	-0.34	0
bin	-0.32	0
bin	-0.3	0
bin	-0.28	0
bin	-0.26	0
bin	-0.24	0
bin	-0.22	0
bin	-0.2	0
bin	-0.18	0
bin	-0.16	0
bin	-0.14	0
bin	-0.12	0
bin	-0.1	0
bin	-0.08	0
bin	-0.06	0
bin	-0.04	0
bin	-0.02	0
bin	0	12
bin	0.02	0
bin	0.04	0
bin	0.06	0
bin	0.08	0
bin	0.1	0
bin	0.12	0
bin	0.14	0
bin	0.16	0
bin	0.18	0
bin	0.2	0
bin	0.22	0
bin	0.24	0
bin	0.26	0
bin	0.28	0
bin	0.3	0
bin	0.32	0
bin	0.34	0
bin	0.36	0
bin	0.38	0
bin	0.4	0
bin	0.42	0
bin	0.44	0
bin	0.46	0
bin	0.48	0
bin	0.5	0
statistic Wireless_6_5m.hostC.wlan[0].radio symbolErrorRate:histogram
field count 12
field mean 0
field stddev 0
field min 0
field max 0
field sum 0
field sqrsum 0
attr source symbolErrorRate(packetSentToUpper)
attr title "Symbol error rate, histogram"
bin	-inf	0
bin	-0.5	0
bin	-0.48	0
bin	-0.46	0
bin	-0.44	0
bin	-0.42	0
bin	-0.4	0
bin	-0.38	0
bin	-0.36	0
bin	-0.34	0
bin	-0.32	0
bin	-0.3	0
bin	-0.28	0
bin	-0.26	0
bin	-0.24	0
bin	-0.22	0
bin	-0.2	0
bin	-0.18	0
bin	-0.16	0
bin	-0.14	0
bin	-0.12	0
bin	-0.1	0
bin	-0.08	0
bin	-0.06	0
bin	-0.04	0
bin	-0.02	0
bin	0	12
bin	0.02	0
bin	0.04	0
bin	0.06	0
bin	0.08	0
bin	0.1	0
bin	0.12	0
bin	0.14	0
bin	0.16	0
bin	0.18	0
bin	0.2	0
bin	0.22	0
bin	0.24	0
bin	0.26	0
bin	0.28	0
bin	0.3	0
bin	0.32	0
bin	0.34	0
bin	0.36	0
bin	0.38	0
bin	0.4	0
bin	0.42	0
bin	0.44	0
bin	0.46	0
bin	0.48	0
bin	0.5	0
scalar Wireless_6_5m.hostC.ipv4.ip packetDropAddressResolutionFailed:count 0
attr interpolationmode none
attr source packetDropReasonIsAddressResolutionFailed(packetDropped)
attr title "packet drop: address resolution failed, count"
scalar Wireless_6_5m.hostC.ipv4.ip packetDropAddressResolutionFailed:sum(packetBytes) 0
attr interpolationmode none
attr source packetDropReasonIsAddressResolutionFailed(packetDropped)
attr title "packet drop: address resolution failed, sum(packetBytes)"
scalar Wireless_6_5m.hostC.ipv4.ip packetDropHopLimitReached:count 0
attr interpolationmode none
attr source packetDropReasonIsHopLimitReached(packetDropped)
attr title "packet drop: hop limit reached, count"
scalar Wireless_6_5m.hostC.ipv4.ip packetDropHopLimitReached:sum(packetBytes) 0
attr interpolationmode none
attr source packetDropReasonIsHopLimitReached(packetDropped)
attr title "packet drop: hop limit reached, sum(packetBytes)"
scalar Wireless_6_5m.hostC.ipv4.ip packetDropForwardingDisabled:count 0
attr interpolationmode none
attr source packetDropReasonIsForwardingDisabled(packetDropped)
attr title "packet drop: forwarding disabled, count"
scalar Wireless_6_5m.hostC.ipv4.ip packetDropForwardingDisabled:sum(packetBytes) 0
attr interpolationmode none
attr source packetDropReasonIsForwardingDisabled(packetDropped)
attr title "packet drop: forwarding disabled, sum(packetBytes)"
scalar Wireless_6_5m.hostC.ipv4.ip packetDropNoInterfaceFound:count 0
attr interpolationmode none
attr source packetDropReasonIsNoInterfaceFound(packetDropped)
attr title "packet drop: no interface found, count"
scalar Wireless_6_5m.hostC.ipv4.ip packetDropNoInterfaceFound:sum(packetBytes) 0
attr interpolationmode none
attr source packetDropReasonIsNoInterfaceFound(packetDropped)
attr title "packet drop: no interface found, sum(packetBytes)"
scalar Wireless_6_5m.hostC.ipv4.ip packetDropNoRouteFound:count 0
attr interpolationmode none
attr source packetDropReasonIsNoRouteFound(packetDropped)
attr title "packet drop: no route found, count"
scalar Wireless_6_5m.hostC.ipv4.ip packetDropNoRouteFound:sum(packetBytes) 0
attr interpolationmode none
attr source packetDropReasonIsNoRouteFound(packetDropped)
attr title "packet drop: no route found, sum(packetBytes)"
scalar Wireless_6_5m.hostC.ipv4.ip packetDropUndefined:count 0
attr interpolationmode none
attr source packetDropReasonIsUndefined(packetDropped)
attr title "packet drop: undefined, count"
scalar Wireless_6_5m.hostC.ipv4.ip packetDropUndefined:sum(packetBytes) 0
attr interpolationmode none
attr source packetDropReasonIsUndefined(packetDropped)
attr title "packet drop: undefined, sum(packetBytes)"
scalar Wireless_6_5m.hostC.udp packetReceived:count 1
attr interpolationmode none
attr source packetReceived
attr title "packets received, count"
scalar Wireless_6_5m.hostC.udp packetReceived:sum(packetBytes) 12
attr interpolationmode none
attr source packetReceived
attr title "packets received, sum(packetBytes)"
scalar Wireless_6_5m.hostC.udp packetSent:count 1
attr interpolationmode none
attr source packetSent
attr title "packets sent, count"
scalar Wireless_6_5m.hostC.udp packetSent:sum(packetBytes) 12
attr interpolationmode none
attr source packetSent
attr title "packets sent, sum(packetBytes)"
scalar Wireless_6_5m.hostC.udp passedUpPk:count 1
attr interpolationmode none
attr source packetSentToUpper
attr title "packets passed up, count"
scalar Wireless_6_5m.hostC.udp droppedPkWrongPort:count 0
attr interpolationmode none
attr source packetDropReasonIsNoPortFound(packetDropped)
attr title "packets dropped (wrong port), count"
scalar Wireless_6_5m.hostC.udp droppedPkBadChecksum:count 0
attr interpolationmode none
attr source packetDropReasonIsIncorrectlyReceived(packetDropped)
attr title "packets dropped (checksum error), count"
scalar Wireless_6_5m.hostD.lo[0].lo rcvdPkFromHl:count 0
attr interpolationmode none
attr source packetReceivedFromUpper
attr title "packets received from higher layer, count"
scalar Wireless_6_5m.hostD.lo[0].lo rcvdPkFromHl:sum(packetBytes) 0
attr interpolationmode none
attr source packetReceivedFromUpper
attr title "packets received from higher layer, sum(packetBytes)"
scalar Wireless_6_5m.hostD.lo[0].lo passedUpPk:count 0
attr interpolationmode none
attr source packetSentToUpper
attr title "packets passed to higher layer, count"
scalar Wireless_6_5m.hostD.lo[0].lo passedUpPk:sum(packetBytes) 0
attr interpolationmode none
attr source packetSentToUpper
attr title "packets passed to higher layer, sum(packetBytes)"
scalar Wireless_6_5m.hostD.wlan[0].mac.queue packetPopped:count 1
attr interpolationmode none
attr title "packet popped, count"
scalar Wireless_6_5m.hostD.wlan[0].mac.queue packetPopped:sum(packetBytes) 59
attr interpolationmode none
attr title "packet popped, sum(packetBytes)"
statistic Wireless_6_5m.hostD.wlan[0].mac.queue queueingTime:histogram
field count 1
field mean 0
field stddev -nan
field min 0
field max 0
field sum 0
field sqrsum 0
attr interpolationmode none
attr source queueingTime(packetPopped)
attr title "queueing times, histogram"
attr unit s
bin	-inf	0
bin	-0.5	0
bin	-0.48	0
bin	-0.46	0
bin	-0.44	0
bin	-0.42	0
bin	-0.4	0
bin	-0.38	0
bin	-0.36	0
bin	-0.34	0
bin	-0.32	0
bin	-0.3	0
bin	-0.28	0
bin	-0.26	0
bin	-0.24	0
bin	-0.22	0
bin	-0.2	0
bin	-0.18	0
bin	-0.16	0
bin	-0.14	0
bin	-0.12	0
bin	-0.1	0
bin	-0.08	0
bin	-0.06	0
bin	-0.04	0
bin	-0.02	0
bin	0	1
bin	0.02	0
bin	0.04	0
bin	0.06	0
bin	0.08	0
bin	0.1	0
bin	0.12	0
bin	0.14	0
bin	0.16	0
bin	0.18	0
bin	0.2	0
bin	0.22	0
bin	0.24	0
bin	0.26	0
bin	0.28	0
bin	0.3	0
bin	0.32	0
bin	0.34	0
bin	0.36	0
bin	0.38	0
bin	0.4	0
bin	0.42	0
bin	0.44	0
bin	0.46	0
bin	0.48	0
bin	0.5	0
scalar Wireless_6_5m.hostD.wlan[0].mac.queue queueLength:max 1
attr interpolationmode sample-hold
attr source "count(packetPushed) - count(packetPopped) - count(packetRemoved) - count(packetDropped)"
attr title "queue length, max"
scalar Wireless_6_5m.hostD.wlan[0].mac.queue queueLength:timeavg 0
attr interpolationmode sample-hold
attr source "count(packetPushed) - count(packetPopped) - count(packetRemoved) - count(packetDropped)"
attr title "queue length, timeavg"
scalar Wireless_6_5m.hostD.wlan[0].mac.queue packetPushed:count 1
attr interpolationmode none
attr title "packet pushed, count"
scalar Wireless_6_5m.hostD.wlan[0].mac.queue packetPushed:sum(packetBytes) 59
attr interpolationmode none
attr title "packet pushed, sum(packetBytes)"
scalar Wireless_6_5m.hostD.wlan[0].mac.queue packetDropQueueOverflow:count 0
attr interpolationmode none
attr source packetDropReasonIsQueueOverflow(packetDropped)
attr title "packet drops: queue overflow, count"
scalar Wireless_6_5m.hostD.wlan[0].mac.queue packetDropQueueOverflow:sum(packetBytes) 0
attr interpolationmode none
attr source packetDropReasonIsQueueOverflow(packetDropped)
attr title "packet drops: queue overflow, sum(packetBytes)"
scalar Wireless_6_5m.hostD.wlan[0].mac.queue packetRemoved:count 0
attr interpolationmode none
attr title "packets removed, count"
scalar Wireless_6_5m.hostD.wlan[0].mac.queue packetRemoved:sum(packetBytes) 0
attr interpolationmode none
attr title "packets removed, sum(packetBytes)"
scalar Wireless_6_5m.hostD.wlan[0].mac numRetry 0
scalar Wireless_6_5m.hostD.wlan[0].mac numSentWithoutRetry 1
scalar Wireless_6_5m.hostD.wlan[0].mac numGivenUp 0
scalar Wireless_6_5m.hostD.wlan[0].mac numCollision 0
scalar Wireless_6_5m.hostD.wlan[0].mac numSent 1
scalar Wireless_6_5m.hostD.wlan[0].mac numReceived 0
scalar Wireless_6_5m.hostD.wlan[0].mac numSentBroadcast 0
scalar Wireless_6_5m.hostD.wlan[0].mac numReceivedBroadcast 1
scalar Wireless_6_5m.hostD.wlan[0].mac packetDropIncorrectlyReceived:count 0
attr interpolationmode none
attr source packetDropReasonIsIncorrectlyReceived(packetDropped)
attr title "packet drop: incorrectly received, count"
scalar Wireless_6_5m.hostD.wlan[0].mac packetDropIncorrectlyReceived:sum(packetBytes) 0
attr interpolationmode none
attr source packetDropReasonIsIncorrectlyReceived(packetDropped)
attr title "packet drop: incorrectly received, sum(packetBytes)"
scalar Wireless_6_5m.hostD.wlan[0].mac packetDropNotAddressedToUs:count 5
attr interpolationmode none
attr source packetDropReasonIsNotAddressedToUs(packetDropped)
attr title "packet drop: not addressed to us, count"
scalar Wireless_6_5m.hostD.wlan[0].mac packetDropNotAddressedToUs:sum(packetBytes) 295
attr interpolationmode none
attr source packetDropReasonIsNotAddressedToUs(packetDropped)
attr title "packet drop: not addressed to us, sum(packetBytes)"
scalar Wireless_6_5m.hostD.wlan[0].mac packetDropQueueOverflow:count 0
attr interpolationmode none
attr source packetDropReasonIsQueueOverflow(packetDropped)
attr title "packet drop: queue overflow, count"
scalar Wireless_6_5m.hostD.wlan[0].mac packetDropQueueOverflow:sum(packetBytes) 0
attr interpolationmode none
attr source packetDropReasonIsQueueOverflow(packetDropped)
attr title "packet drop: queue overflow, sum(packetBytes)"
scalar Wireless_6_5m.hostD.wlan[0].mac packetDropRetryLimitReached:count 0
attr interpolationmode none
attr source packetDropReasonIsRetryLimitReached(packetDropped)
attr title "packet drop: retry limit reached, count"
scalar Wireless_6_5m.hostD.wlan[0].mac packetDropRetryLimitReached:sum(packetBytes) 0
attr interpolationmode none
attr source packetDropReasonIsRetryLimitReached(packetDropped)
attr title "packet drop: retry limit reached, sum(packetBytes)"
scalar Wireless_6_5m.hostD.wlan[0].mac linkBroken:count 0
attr interpolationmode none
attr source linkBroken
attr title "link break, count"
scalar Wireless_6_5m.hostD.wlan[0].radio radioMode:count 5
attr interpolationmode sample-hold
attr source radioModeChanged
attr title "Radio mode, count"
scalar Wireless_6_5m.hostD.wlan[0].radio receptionState:count 27
attr interpolationmode sample-hold
attr source receptionStateChanged
attr title "Radio reception state, count"
scalar Wireless_6_5m.hostD.wlan[0].radio transmissionState:count 4
attr interpolationmode sample-hold
attr source transmissionStateChanged
attr title "Radio transmission state, count"
statistic Wireless_6_5m.hostD.wlan[0].radio minSnir:histogram
field count 12
field mean 6584.6725503987
field stddev 2507.8794792229
field min 1992.0017799465
field max 7968.0071200008
field sum 79016.070604784
field sqrsum 589479005.45707
attr source minimumSnir(packetSentToUpper)
attr title "Min SNIR, histogram"
bin	-inf	0
bin	400	0
bin	500	0
bin	600	0
bin	700	0
bin	800	0
bin	900	0
bin	1000	0
bin	1100	0
bin	1200	0
bin	1300	0
bin	1400	0
bin	1500	0
bin	1600	0
bin	1700	0
bin	1800	0
bin	1900	1
bin	2000	0
bin	2100	0
bin	2200	0
bin	2300	0
bin	2400	0
bin	2500	0
bin	2600	2
bin	2700	0
bin	2800	0
bin	2900	0
bin	3000	0
bin	3100	0
bin	3200	0
bin	3300	0
bin	3400	0
bin	3500	0
bin	3600	0
bin	3700	0
bin	3800	0
bin	3900	0
bin	4000	0
bin	4100	0
bin	4200	0
bin	4300	0
bin	4400	0
bin	4500	0
bin	4600	0
bin	4700	0
bin	4800	0
bin	4900	0
bin	5000	0
bin	5100	0
bin	5200	0
bin	5300	0
bin	5400	0
bin	5500	0
bin	5600	0
bin	5700	0
bin	5800	0
bin	5900	0
bin	6000	0
bin	6100	0
bin	6200	0
bin	6300	0
bin	6400	0
bin	6500	0
bin	6600	0
bin	6700	0
bin	6800	0
bin	6900	0
bin	7000	0
bin	7100	0
bin	7200	0
bin	7300	0
bin	7400	0
bin	7500	0
bin	7600	0
bin	7700	0
bin	7800	0
bin	7900	9
bin	8000	0
bin	8100	0
bin	8200	0
bin	8300	0
bin	8400	0
bin	8500	0
bin	8600	0
bin	8700	0
bin	8800	0
bin	8900	0
bin	9000	0
bin	9100	0
bin	9200	0
bin	9300	0
bin	9400	0
bin	9500	0
statistic Wireless_6_5m.hostD.wlan[0].radio packetErrorRate:histogram
field count 12
field mean 0
field stddev 0
field min 0
field max 0
field sum 0
field sqrsum 0
attr source packetErrorRate(packetSentToUpper)
attr title "Packet error rate, histogram"
bin	-inf	0
bin	-0.5	0
bin	-0.48	0
bin	-0.46	0
bin	-0.44	0
bin	-0.42	0
bin	-0.4	0
bin	-0.38	0
bin	-0.36	0
bin	-0.34	0
bin	-0.32	0
bin	-0.3	0
bin	-0.28	0
bin	-0.26	0
bin	-0.24	0
bin	-0.22	0
bin	-0.2	0
bin	-0.18	0
bin	-0.16	0
bin	-0.14	0
bin	-0.12	0
bin	-0.1	0
bin	-0.08	0
bin	-0.06	0
bin	-0.04	0
bin	-0.02	0
bin	0	12
bin	0.02	0
bin	0.04	0
bin	0.06	0
bin	0.08	0
bin	0.1	0
bin	0.12	0
bin	0.14	0
bin	0.16	0
bin	0.18	0
bin	0.2	0
bin	0.22	0
bin	0.24	0
bin	0.26	0
bin	0.28	0
bin	0.3	0
bin	0.32	0
bin	0.34	0
bin	0.36	0
bin	0.38	0
bin	0.4	0
bin	0.42	0
bin	0.44	0
bin	0.46	0
bin	0.48	0
bin	0.5	0
statistic Wireless_6_5m.hostD.wlan[0].radio bitErrorRate:histogram
field count 12
field mean 0
field stddev 0
field min 0
field max 0
field sum 0
field sqrsum 0
attr source bitErrorRate(packetSentToUpper)
attr title "Bit error rate, histogram"
bin	-inf	0
bin	-0.5	0
bin	-0.48	0
bin	-0.46	0
bin	-0.44	0
bin	-0.42	0
bin	-0.4	0
bin	-0.38	0
bin	-0.36	0
bin	-0.34	0
bin	-0.32	0
bin	-0.3	0
bin	-0.28	0
bin	-0.26	0
bin	-0.24	0
bin	-0.22	0
bin	-0.2	0
bin	-0.18	0
bin	-0.16	0
bin	-0.14	0
bin	-0.12	0
bin	-0.1	0
bin	-0.08	0
bin	-0.06	0
bin	-0.04	0
bin	-0.02	0
bin	0	12
bin	0.02	0
bin	0.04	0
bin	0.06	0
bin	0.08	0
bin	0.1	0
bin	0.12	0
bin	0.14	0
bin	0.16	0
bin	0.18	0
bin	0.2	0
bin	0.22	0
bin	0.24	0
bin	0.26	0
bin	0.28	0
bin	0.3	0
bin	0.32	0
bin	0.34	0
bin	0.36	0
bin	0.38	0
bin	0.4	0
bin	0.42	0
bin	0.44	0
bin	0.46	0
bin	0.48	0
bin	0.5	0
statistic Wireless_6_5m.hostD.wlan[0].radio symbolErrorRate:histogram
field count 12
field mean 0
field stddev 0
field min 0
field max 0
field sum 0
field sqrsum 0
attr source symbolErrorRate(packetSentToUpper)
attr title "Symbol error rate, histogram"
bin	-inf	0
bin	-0.5	0
bin	-0.48	0
bin	-0.46	0
bin	-0.44	0
bin	-0.42	0
bin	-0.4	0
bin	-0.38	0
bin	-0.36	0
bin	-0.34	0
bin	-0.32	0
bin	-0.3	0
bin	-0.28	0
bin	-0.26	0
bin	-0.24	0
bin	-0.22	0
bin	-0.2	0
bin	-0.18	0
bin	-0.16	0
bin	-0.14	0
bin	-0.12	0
bin	-0.1	0
bin	-0.08	0
bin	-0.06	0
bin	-0.04	0
bin	-0.02	0
bin	0	12
bin	0.02	0
bin	0.04	0
bin	0.06	0
bin	0.08	0
bin	0.1	0
bin	0.12	0
bin	0.14	0
bin	0.16	0
bin	0.18	0
bin	0.2	0
bin	0.22	0
bin	0.24	0
bin	0.26	0
bin	0.28	0
bin	0.3	0
bin	0.32	0
bin	0.34	0
bin	0.36	0
bin	0.38	0
bin	0.4	0
bin	0.42	0
bin	0.44	0
bin	0.46	0
bin	0.48	0
bin	0.5	0
scalar Wireless_6_5m.hostD.ipv4.ip packetDropAddressResolutionFailed:count 0
attr interpolationmode none
attr source packetDropReasonIsAddressResolutionFailed(packetDropped)
attr title "packet drop: address resolution failed, count"
scalar Wireless_6_5m.hostD.ipv4.ip packetDropAddressResolutionFailed:sum(packetBytes) 0
attr interpolationmode none
attr source packetDropReasonIsAddressResolutionFailed(packetDropped)
attr title "packet drop: address resolution failed, sum(packetBytes)"
scalar Wireless_6_5m.hostD.ipv4.ip packetDropHopLimitReached:count 0
attr interpolationmode none
attr source packetDropReasonIsHopLimitReached(packetDropped)
attr title "packet drop: hop limit reached, count"
scalar Wireless_6_5m.hostD.ipv4.ip packetDropHopLimitReached:sum(packetBytes) 0
attr interpolationmode none
attr source packetDropReasonIsHopLimitReached(packetDropped)
attr title "packet drop: hop limit reached, sum(packetBytes)"
scalar Wireless_6_5m.hostD.ipv4.ip packetDropForwardingDisabled:count 0
attr interpolationmode none
attr source packetDropReasonIsForwardingDisabled(packetDropped)
attr title "packet drop: forwarding disabled, count"
scalar Wireless_6_5m.hostD.ipv4.ip packetDropForwardingDisabled:sum(packetBytes) 0
attr interpolationmode none
attr source packetDropReasonIsForwardingDisabled(packetDropped)
attr title "packet drop: forwarding disabled, sum(packetBytes)"
scalar Wireless_6_5m.hostD.ipv4.ip packetDropNoInterfaceFound:count 0
attr interpolationmode none
attr source packetDropReasonIsNoInterfaceFound(packetDropped)
attr title "packet drop: no interface found, count"
scalar Wireless_6_5m.hostD.ipv4.ip packetDropNoInterfaceFound:sum(packetBytes) 0
attr interpolationmode none
attr source packetDropReasonIsNoInterfaceFound(packetDropped)
attr title "packet drop: no interface found, sum(packetBytes)"
scalar Wireless_6_5m.hostD.ipv4.ip packetDropNoRouteFound:count 0
attr interpolationmode none
attr source packetDropReasonIsNoRouteFound(packetDropped)
attr title "packet drop: no route found, count"
scalar Wireless_6_5m.hostD.ipv4.ip packetDropNoRouteFound:sum(packetBytes) 0
attr interpolationmode none
attr source packetDropReasonIsNoRouteFound(packetDropped)
attr title "packet drop: no route found, sum(packetBytes)"
scalar Wireless_6_5m.hostD.ipv4.ip packetDropUndefined:count 0
attr interpolationmode none
attr source packetDropReasonIsUndefined(packetDropped)
attr title "packet drop: undefined, count"
scalar Wireless_6_5m.hostD.ipv4.ip packetDropUndefined:sum(packetBytes) 0
attr interpolationmode none
attr source packetDropReasonIsUndefined(packetDropped)
attr title "packet drop: undefined, sum(packetBytes)"
scalar Wireless_6_5m.hostD.udp packetReceived:count 1
attr interpolationmode none
attr source packetReceived
attr title "packets received, count"
scalar Wireless_6_5m.hostD.udp packetReceived:sum(packetBytes) 12
attr interpolationmode none
attr source packetReceived
attr title "packets received, sum(packetBytes)"
scalar Wireless_6_5m.hostD.udp packetSent:count 1
attr interpolationmode none
attr source packetSent
attr title "packets sent, count"
scalar Wireless_6_5m.hostD.udp packetSent:sum(packetBytes) 12
attr interpolationmode none
attr source packetSent
attr title "packets sent, sum(packetBytes)"
scalar Wireless_6_5m.hostD.udp passedUpPk:count 1
attr interpolationmode none
attr source packetSentToUpper
attr title "packets passed up, count"
scalar Wireless_6_5m.hostD.udp droppedPkWrongPort:count 0
attr interpolationmode none
attr source packetDropReasonIsNoPortFound(packetDropped)
attr title "packets dropped (wrong port), count"
scalar Wireless_6_5m.hostD.udp droppedPkBadChecksum:count 0
attr interpolationmode none
attr source packetDropReasonIsIncorrectlyReceived(packetDropped)
attr title "packets dropped (checksum error), count"
scalar Wireless_6_5m.hostE.lo[0].lo rcvdPkFromHl:count 0
attr interpolationmode none
attr source packetReceivedFromUpper
attr title "packets received from higher layer, count"
scalar Wireless_6_5m.hostE.lo[0].lo rcvdPkFromHl:sum(packetBytes) 0
attr interpolationmode none
attr source packetReceivedFromUpper
attr title "packets received from higher layer, sum(packetBytes)"
scalar Wireless_6_5m.hostE.lo[0].lo passedUpPk:count 0
attr interpolationmode none
attr source packetSentToUpper
attr title "packets passed to higher layer, count"
scalar Wireless_6_5m.hostE.lo[0].lo passedUpPk:sum(packetBytes) 0
attr interpolationmode none
attr source packetSentToUpper
attr title "packets passed to higher layer, sum(packetBytes)"
scalar Wireless_6_5m.hostE.wlan[0].mac.queue packetPopped:count 1
attr interpolationmode none
attr title "packet popped, count"
scalar Wireless_6_5m.hostE.wlan[0].mac.queue packetPopped:sum(packetBytes) 59
attr interpolationmode none
attr title "packet popped, sum(packetBytes)"
statistic Wireless_6_5m.hostE.wlan[0].mac.queue queueingTime:histogram
field count 1
field mean 0
field stddev -nan
field min 0
field max 0
field sum 0
field sqrsum 0
attr interpolationmode none
attr source queueingTime(packetPopped)
attr title "queueing times, histogram"
attr unit s
bin	-inf	0
bin	-0.5	0
bin	-0.48	0
bin	-0.46	0
bin	-0.44	0
bin	-0.42	0
bin	-0.4	0
bin	-0.38	0
bin	-0.36	0
bin	-0.34	0
bin	-0.32	0
bin	-0.3	0
bin	-0.28	0
bin	-0.26	0
bin	-0.24	0
bin	-0.22	0
bin	-0.2	0
bin	-0.18	0
bin	-0.16	0
bin	-0.14	0
bin	-0.12	0
bin	-0.1	0
bin	-0.08	0
bin	-0.06	0
bin	-0.04	0
bin	-0.02	0
bin	0	1
bin	0.02	0
bin	0.04	0
bin	0.06	0
bin	0.08	0
bin	0.1	0
bin	0.12	0
bin	0.14	0
bin	0.16	0
bin	0.18	0
bin	0.2	0
bin	0.22	0
bin	0.24	0
bin	0.26	0
bin	0.28	0
bin	0.3	0
bin	0.32	0
bin	0.34	0
bin	0.36	0
bin	0.38	0
bin	0.4	0
bin	0.42	0
bin	0.44	0
bin	0.46	0
bin	0.48	0
bin	0.5	0
scalar Wireless_6_5m.hostE.wlan[0].mac.queue queueLength:max 1
attr interpolationmode sample-hold
attr source "count(packetPushed) - count(packetPopped) - count(packetRemoved) - count(packetDropped)"
attr title "queue length, max"
scalar Wireless_6_5m.hostE.wlan[0].mac.queue queueLength:timeavg 0
attr interpolationmode sample-hold
attr source "count(packetPushed) - count(packetPopped) - count(packetRemoved) - count(packetDropped)"
attr title "queue length, timeavg"
scalar Wireless_6_5m.hostE.wlan[0].mac.queue packetPushed:count 1
attr interpolationmode none
attr title "packet pushed, count"
scalar Wireless_6_5m.hostE.wlan[0].mac.queue packetPushed:sum(packetBytes) 59
attr interpolationmode none
attr title "packet pushed, sum(packetBytes)"
scalar Wireless_6_5m.hostE.wlan[0].mac.queue packetDropQueueOverflow:count 0
attr interpolationmode none
attr source packetDropReasonIsQueueOverflow(packetDropped)
attr title "packet drops: queue overflow, count"
scalar Wireless_6_5m.hostE.wlan[0].mac.queue packetDropQueueOverflow:sum(packetBytes) 0
attr interpolationmode none
attr source packetDropReasonIsQueueOverflow(packetDropped)
attr title "packet drops: queue overflow, sum(packetBytes)"
scalar Wireless_6_5m.hostE.wlan[0].mac.queue packetRemoved:count 0
attr interpolationmode none
attr title "packets removed, count"
scalar Wireless_6_5m.hostE.wlan[0].mac.queue packetRemoved:sum(packetBytes) 0
attr interpolationmode none
attr title "packets removed, sum(packetBytes)"
scalar Wireless_6_5m.hostE.wlan[0].mac numRetry 0
scalar Wireless_6_5m.hostE.wlan[0].mac numSentWithoutRetry 1
scalar Wireless_6_5m.hostE.wlan[0].mac numGivenUp 0
scalar Wireless_6_5m.hostE.wlan[0].mac numCollision 0
scalar Wireless_6_5m.hostE.wlan[0].mac numSent 1
scalar Wireless_6_5m.hostE.wlan[0].mac numReceived 0
scalar Wireless_6_5m.hostE.wlan[0].mac numSentBroadcast 0
scalar Wireless_6_5m.hostE.wlan[0].mac numReceivedBroadcast 1
scalar Wireless_6_5m.hostE.wlan[0].mac packetDropIncorrectlyReceived:count 0
attr interpolationmode none
attr source packetDropReasonIsIncorrectlyReceived(packetDropped)
attr title "packet drop: incorrectly received, count"
scalar Wireless_6_5m.hostE.wlan[0].mac packetDropIncorrectlyReceived:sum(packetBytes) 0
attr interpolationmode none
attr source packetDropReasonIsIncorrectlyReceived(packetDropped)
attr title "packet drop: incorrectly received, sum(packetBytes)"
scalar Wireless_6_5m.hostE.wlan[0].mac packetDropNotAddressedToUs:count 5
attr interpolationmode none
attr source packetDropReasonIsNotAddressedToUs(packetDropped)
attr title "packet drop: not addressed to us, count"
scalar Wireless_6_5m.hostE.wlan[0].mac packetDropNotAddressedToUs:sum(packetBytes) 295
attr interpolationmode none
attr source packetDropReasonIsNotAddressedToUs(packetDropped)
attr title "packet drop: not addressed to us, sum(packetBytes)"
scalar Wireless_6_5m.hostE.wlan[0].mac packetDropQueueOverflow:count 0
attr interpolationmode none
attr source packetDropReasonIsQueueOverflow(packetDropped)
attr title "packet drop: queue overflow, count"
scalar Wireless_6_5m.hostE.wlan[0].mac packetDropQueueOverflow:sum(packetBytes) 0
attr interpolationmode none
attr source packetDropReasonIsQueueOverflow(packetDropped)
attr title "packet drop: queue overflow, sum(packetBytes)"
scalar Wireless_6_5m.hostE.wlan[0].mac packetDropRetryLimitReached:count 0
attr interpolationmode none
attr source packetDropReasonIsRetryLimitReached(packetDropped)
attr title "packet drop: retry limit reached, count"
scalar Wireless_6_5m.hostE.wlan[0].mac packetDropRetryLimitReached:sum(packetBytes) 0
attr interpolationmode none
attr source packetDropReasonIsRetryLimitReached(packetDropped)
attr title "packet drop: retry limit reached, sum(packetBytes)"
scalar Wireless_6_5m.hostE.wlan[0].mac linkBroken:count 0
attr interpolationmode none
attr source linkBroken
attr title "link break, count"
scalar Wireless_6_5m.hostE.wlan[0].radio radioMode:count 5
attr interpolationmode sample-hold
attr source radioModeChanged
attr title "Radio mode, count"
scalar Wireless_6_5m.hostE.wlan[0].radio receptionState:count 27
attr interpolationmode sample-hold
attr source receptionStateChanged
attr title "Radio reception state, count"
scalar Wireless_6_5m.hostE.wlan[0].radio transmissionState:count 4
attr interpolationmode sample-hold
attr source transmissionStateChanged
attr title "Radio transmission state, count"
statistic Wireless_6_5m.hostE.wlan[0].radio minSnir:histogram
field count 12
field mean 6584.6725503987
field stddev 2507.8794792229
field min 1992.0017799465
field max 7968.0071200008
field sum 79016.070604784
field sqrsum 589479005.45707
attr source minimumSnir(packetSentToUpper)
attr title "Min SNIR, histogram"
bin	-inf	0
bin	400	0
bin	500	0
bin	600	0
bin	700	0
bin	800	0
bin	900	0
bin	1000	0
bin	1100	0
bin	1200	0
bin	1300	0
bin	1400	0
bin	1500	0
bin	1600	0
bin	1700	0
bin	1800	0
bin	1900	1
bin	2000	0
bin	2100	0
bin	2200	0
bin	2300	0
bin	2400	0
bin	2500	0
bin	2600	2
bin	2700	0
bin	2800	0
bin	2900	0
bin	3000	0
bin	3100	0
bin	3200	0
bin	3300	0
bin	3400	0
bin	3500	0
bin	3600	0
bin	3700	0
bin	3800	0
bin	3900	0
bin	4000	0
bin	4100	0
bin	4200	0
bin	4300	0
bin	4400	0
bin	4500	0
bin	4600	0
bin	4700	0
bin	4800	0
bin	4900	0
bin	5000	0
bin	5100	0
bin	5200	0
bin	5300	0
bin	5400	0
bin	5500	0
bin	5600	0
bin	5700	0
bin	5800	0
bin	5900	0
bin	6000	0
bin	6100	0
bin	6200	0
bin	6300	0
bin	6400	0
bin	6500	0
bin	6600	0
bin	6700	0
bin	6800	0
bin	6900	0
bin	7000	0
bin	7100	0
bin	7200	0
bin	7300	0
bin	7400	0
bin	7500	0
bin	7600	0
bin	7700	0
bin	7800	0
bin	7900	9
bin	8000	0
bin	8100	0
bin	8200	0
bin	8300	0
bin	8400	0
bin	8500	0
bin	8600	0
bin	8700	0
bin	8800	0
bin	8900	0
bin	9000	0
bin	9100	0
bin	9200	0
bin	9300	0
bin	9400	0
bin	9500	0
statistic Wireless_6_5m.hostE.wlan[0].radio packetErrorRate:histogram
field count 12
field mean 0
field stddev 0
field min 0
field max 0
field sum 0
field sqrsum 0
attr source packetErrorRate(packetSentToUpper)
attr title "Packet error rate, histogram"
bin	-inf	0
bin	-0.5	0
bin	-0.48	0
bin	-0.46	0
bin	-0.44	0
bin	-0.42	0
bin	-0.4	0
bin	-0.38	0
bin	-0.36	0
bin	-0.34	0
bin	-0.32	0
bin	-0.3	0
bin	-0.28	0
bin	-0.26	0
bin	-0.24	0
bin	-0.22	0
bin	-0.2	0
bin	-0.18	0
bin	-0.16	0
bin	-0.14	0
bin	-0.12	0
bin	-0.1	0
bin	-0.08	0
bin	-0.06	0
bin	-0.04	0
bin	-0.02	0
bin	0	12
bin	0.02	0
bin	0.04	0
bin	0.06	0
bin	0.08	0
bin	0.1	0
bin	0.12	0
bin	0.14	0
bin	0.16	0
bin	0.18	0
bin	0.2	0
bin	0.22	0
bin	0.24	0
bin	0.26	0
bin	0.28	0
bin	0.3	0
bin	0.32	0
bin	0.34	0
bin	0.36	0
bin	0.38	0
bin	0.4	0
bin	0.42	0
bin	0.44	0
bin	0.46	0
bin	0.48	0
bin	0.5	0
statistic Wireless_6_5m.hostE.wlan[0].radio bitErrorRate:histogram
field count 12
field mean 0
field stddev 0
field min 0
field max 0
field sum 0
field sqrsum 0
attr source bitErrorRate(packetSentToUpper)
attr title "Bit error rate, histogram"
bin	-inf	0
bin	-0.5	0
bin	-0.48	0
bin	-0.46	0
bin	-0.44	0
bin	-0.42	0
bin	-0.4	0
bin	-0.38	0
bin	-0.36	0
bin	-0.34	0
bin	-0.32	0
bin	-0.3	0
bin	-0.28	0
bin	-0.26	0
bin	-0.24	0
bin	-0.22	0
bin	-0.2	0
bin	-0.18	0
bin	-0.16	0
bin	-0.14	0
bin	-0.12	0
bin	-0.1	0
bin	-0.08	0
bin	-0.06	0
bin	-0.04	0
bin	-0.02	0
bin	0	12
bin	0.02	0
bin	0.04	0
bin	0.06	0
bin	0.08	0
bin	0.1	0
bin	0.12	0
bin	0.14	0
bin	0.16	0
bin	0.18	0
bin	0.2	0
bin	0.22	0
bin	0.24	0
bin	0.26	0
bin	0.28	0
bin	0.3	0
bin	0.32	0
bin	0.34	0
bin	0.36	0
bin	0.38	0
bin	0.4	0
bin	0.42	0
bin	0.44	0
bin	0.46	0
bin	0.48	0
bin	0.5	0
statistic Wireless_6_5m.hostE.wlan[0].radio symbolErrorRate:histogram
field count 12
field mean 0
field stddev 0
field min 0
field max 0
field sum 0
field sqrsum 0
attr source symbolErrorRate(packetSentToUpper)
attr title "Symbol error rate, histogram"
bin	-inf	0
bin	-0.5	0
bin	-0.48	0
bin	-0.46	0
bin	-0.44	0
bin	-0.42	0
bin	-0.4	0
bin	-0.38	0
bin	-0.36	0
bin	-0.34	0
bin	-0.32	0
bin	-0.3	0
bin	-0.28	0
bin	-0.26	0
bin	-0.24	0
bin	-0.22	0
bin	-0.2	0
bin	-0.18	0
bin	-0.16	0
bin	-0.14	0
bin	-0.12	0
bin	-0.1	0
bin	-0.08	0
bin	-0.06	0
bin	-0.04	0
bin	-0.02	0
bin	0	12
bin	0.02	0
bin	0.04	0
bin	0.06	0
bin	0.08	0
bin	0.1	0
bin	0.12	0
bin	0.14	0
bin	0.16	0
bin	0.18	0
bin	0.2	0
bin	0.22	0
bin	0.24	0
bin	0.26	0
bin	0.28	0
bin	0.3	0
bin	0.32	0
bin	0.34	0
bin	0.36	0
bin	0.38	0
bin	0.4	0
bin	0.42	0
bin	0.44	0
bin	0.46	0
bin	0.48	0
bin	0.5	0
scalar Wireless_6_5m.hostE.ipv4.ip packetDropAddressResolutionFailed:count 0
attr interpolationmode none
attr source packetDropReasonIsAddressResolutionFailed(packetDropped)
attr title "packet drop: address resolution failed, count"
scalar Wireless_6_5m.hostE.ipv4.ip packetDropAddressResolutionFailed:sum(packetBytes) 0
attr interpolationmode none
attr source packetDropReasonIsAddressResolutionFailed(packetDropped)
attr title "packet drop: address resolution failed, sum(packetBytes)"
scalar Wireless_6_5m.hostE.ipv4.ip packetDropHopLimitReached:count 0
attr interpolationmode none
attr source packetDropReasonIsHopLimitReached(packetDropped)
attr title "packet drop: hop limit reached, count"
scalar Wireless_6_5m.hostE.ipv4.ip packetDropHopLimitReached:sum(packetBytes) 0
attr interpolationmode none
attr source packetDropReasonIsHopLimitReached(packetDropped)
attr title "packet drop: hop limit reached, sum(packetBytes)"
scalar Wireless_6_5m.hostE.ipv4.ip packetDropForwardingDisabled:count 0
attr interpolationmode none
attr source packetDropReasonIsForwardingDisabled(packetDropped)
attr title "packet drop: forwarding disabled, count"
scalar Wireless_6_5m.hostE.ipv4.ip packetDropForwardingDisabled:sum(packetBytes) 0
attr interpolationmode none
attr source packetDropReasonIsForwardingDisabled(packetDropped)
attr title "packet drop: forwarding disabled, sum(packetBytes)"
scalar Wireless_6_5m.hostE.ipv4.ip packetDropNoInterfaceFound:count 0
attr interpolationmode none
attr source packetDropReasonIsNoInterfaceFound(packetDropped)
attr title "packet drop: no interface found, count"
scalar Wireless_6_5m.hostE.ipv4.ip packetDropNoInterfaceFound:sum(packetBytes) 0
attr interpolationmode none
attr source packetDropReasonIsNoInterfaceFound(packetDropped)
attr title "packet drop: no interface found, sum(packetBytes)"
scalar Wireless_6_5m.hostE.ipv4.ip packetDropNoRouteFound:count 0
attr interpolationmode none
attr source packetDropReasonIsNoRouteFound(packetDropped)
attr title "packet drop: no route found, count"
scalar Wireless_6_5m.hostE.ipv4.ip packetDropNoRouteFound:sum(packetBytes) 0
attr interpolationmode none
attr source packetDropReasonIsNoRouteFound(packetDropped)
attr title "packet drop: no route found, sum(packetBytes)"
scalar Wireless_6_5m.hostE.ipv4.ip packetDropUndefined:count 0
attr interpolationmode none
attr source packetDropReasonIsUndefined(packetDropped)
attr title "packet drop: undefined, count"
scalar Wireless_6_5m.hostE.ipv4.ip packetDropUndefined:sum(packetBytes) 0
attr interpolationmode none
attr source packetDropReasonIsUndefined(packetDropped)
attr title "packet drop: undefined, sum(packetBytes)"
scalar Wireless_6_5m.hostE.udp packetReceived:count 1
attr interpolationmode none
attr source packetReceived
attr title "packets received, count"
scalar Wireless_6_5m.hostE.udp packetReceived:sum(packetBytes) 12
attr interpolationmode none
attr source packetReceived
attr title "packets received, sum(packetBytes)"
scalar Wireless_6_5m.hostE.udp packetSent:count 1
attr interpolationmode none
attr source packetSent
attr title "packets sent, count"
scalar Wireless_6_5m.hostE.udp packetSent:sum(packetBytes) 12
attr interpolationmode none
attr source packetSent
attr title "packets sent, sum(packetBytes)"
scalar Wireless_6_5m.hostE.udp passedUpPk:count 1
attr interpolationmode none
attr source packetSentToUpper
attr title "packets passed up, count"
scalar Wireless_6_5m.hostE.udp droppedPkWrongPort:count 0
attr interpolationmode none
attr source packetDropReasonIsNoPortFound(packetDropped)
attr title "packets dropped (wrong port), count"
scalar Wireless_6_5m.hostE.udp droppedPkBadChecksum:count 0
attr interpolationmode none
attr source packetDropReasonIsIncorrectlyReceived(packetDropped)
attr title "packets dropped (checksum error), count"
scalar Wireless_6_5m.hostF.lo[0].lo rcvdPkFromHl:count 0
attr interpolationmode none
attr source packetReceivedFromUpper
attr title "packets received from higher layer, count"
scalar Wireless_6_5m.hostF.lo[0].lo rcvdPkFromHl:sum(packetBytes) 0
attr interpolationmode none
attr source packetReceivedFromUpper
attr title "packets received from higher layer, sum(packetBytes)"
scalar Wireless_6_5m.hostF.lo[0].lo passedUpPk:count 0
attr interpolationmode none
attr source packetSentToUpper
attr title "packets passed to higher layer, count"
scalar Wireless_6_5m.hostF.lo[0].lo passedUpPk:sum(packetBytes) 0
attr interpolationmode none
attr source packetSentToUpper
attr title "packets passed to higher layer, sum(packetBytes)"
scalar Wireless_6_5m.hostF.wlan[0].mac.queue packetPopped:count 1
attr interpolationmode none
attr title "packet popped, count"
scalar Wireless_6_5m.hostF.wlan[0].mac.queue packetPopped:sum(packetBytes) 59
attr interpolationmode none
attr title "packet popped, sum(packetBytes)"
statistic Wireless_6_5m.hostF.wlan[0].mac.queue queueingTime:histogram
field count 1
field mean 0
field stddev -nan
field min 0
field max 0
field sum 0
field sqrsum 0
attr interpolationmode none
attr source queueingTime(packetPopped)
attr title "queueing times, histogram"
attr unit s
bin	-inf	0
bin	-0.5	0
bin	-0.48	0
bin	-0.46	0
bin	-0.44	0
bin	-0.42	0
bin	-0.4	0
bin	-0.38	0
bin	-0.36	0
bin	-0.34	0
bin	-0.32	0
bin	-0.3	0
bin	-0.28	0
bin	-0.26	0
bin	-0.24	0
bin	-0.22	0
bin	-0.2	0
bin	-0.18	0
bin	-0.16	0
bin	-0.14	0
bin	-0.12	0
bin	-0.1	0
bin	-0.08	0
bin	-0.06	0
bin	-0.04	0
bin	-0.02	0
bin	0	1
bin	0.02	0
bin	0.04	0
bin	0.06	0
bin	0.08	0
bin	0.1	0
bin	0.12	0
bin	0.14	0
bin	0.16	0
bin	0.18	0
bin	0.2	0
bin	0.22	0
bin	0.24	0
bin	0.26	0
bin	0.28	0
bin	0.3	0
bin	0.32	0
bin	0.34	0
bin	0.36	0
bin	0.38	0
bin	0.4	0
bin	0.42	0
bin	0.44	0
bin	0.46	0
bin	0.48	0
bin	0.5	0
scalar Wireless_6_5m.hostF.wlan[0].mac.queue queueLength:max 1
attr interpolationmode sample-hold
attr source "count(packetPushed) - count(packetPopped) - count(packetRemoved) - count(packetDropped)"
attr title "queue length, max"
scalar Wireless_6_5m.hostF.wlan[0].mac.queue queueLength:timeavg 0
attr interpolationmode sample-hold
attr source "count(packetPushed) - count(packetPopped) - count(packetRemoved) - count(packetDropped)"
attr title "queue length, timeavg"
scalar Wireless_6_5m.hostF.wlan[0].mac.queue packetPushed:count 1
attr interpolationmode none
attr title "packet pushed, count"
scalar Wireless_6_5m.hostF.wlan[0].mac.queue packetPushed:sum(packetBytes) 59
attr interpolationmode none
attr title "packet pushed, sum(packetBytes)"
scalar Wireless_6_5m.hostF.wlan[0].mac.queue packetDropQueueOverflow:count 0
attr interpolationmode none
attr source packetDropReasonIsQueueOverflow(packetDropped)
attr title "packet drops: queue overflow, count"
scalar Wireless_6_5m.hostF.wlan[0].mac.queue packetDropQueueOverflow:sum(packetBytes) 0
attr interpolationmode none
attr source packetDropReasonIsQueueOverflow(packetDropped)
attr title "packet drops: queue overflow, sum(packetBytes)"
scalar Wireless_6_5m.hostF.wlan[0].mac.queue packetRemoved:count 0
attr interpolationmode none
attr title "packets removed, count"
scalar Wireless_6_5m.hostF.wlan[0].mac.queue packetRemoved:sum(packetBytes) 0
attr interpolationmode none
attr title "packets removed, sum(packetBytes)"
scalar Wireless_6_5m.hostF.wlan[0].mac numRetry 0
scalar Wireless_6_5m.hostF.wlan[0].mac numSentWithoutRetry 1
scalar Wireless_6_5m.hostF.wlan[0].mac numGivenUp 0
scalar Wireless_6_5m.hostF.wlan[0].mac numCollision 0
scalar Wireless_6_5m.hostF.wlan[0].mac numSent 1
scalar Wireless_6_5m.hostF.wlan[0].mac numReceived 0
scalar Wireless_6_5m.hostF.wlan[0].mac numSentBroadcast 0
scalar Wireless_6_5m.hostF.wlan[0].mac numReceivedBroadcast 1
scalar Wireless_6_5m.hostF.wlan[0].mac packetDropIncorrectlyReceived:count 0
attr interpolationmode none
attr source packetDropReasonIsIncorrectlyReceived(packetDropped)
attr title "packet drop: incorrectly received, count"
scalar Wireless_6_5m.hostF.wlan[0].mac packetDropIncorrectlyReceived:sum(packetBytes) 0
attr interpolationmode none
attr source packetDropReasonIsIncorrectlyReceived(packetDropped)
attr title "packet drop: incorrectly received, sum(packetBytes)"
scalar Wireless_6_5m.hostF.wlan[0].mac packetDropNotAddressedToUs:count 5
attr interpolationmode none
attr source packetDropReasonIsNotAddressedToUs(packetDropped)
attr title "packet drop: not addressed to us, count"
scalar Wireless_6_5m.hostF.wlan[0].mac packetDropNotAddressedToUs:sum(packetBytes) 295
attr interpolationmode none
attr source packetDropReasonIsNotAddressedToUs(packetDropped)
attr title "packet drop: not addressed to us, sum(packetBytes)"
scalar Wireless_6_5m.hostF.wlan[0].mac packetDropQueueOverflow:count 0
attr interpolationmode none
attr source packetDropReasonIsQueueOverflow(packetDropped)
attr title "packet drop: queue overflow, count"
scalar Wireless_6_5m.hostF.wlan[0].mac packetDropQueueOverflow:sum(packetBytes) 0
attr interpolationmode none
attr source packetDropReasonIsQueueOverflow(packetDropped)
attr title "packet drop: queue overflow, sum(packetBytes)"
scalar Wireless_6_5m.hostF.wlan[0].mac packetDropRetryLimitReached:count 0
attr interpolationmode none
attr source packetDropReasonIsRetryLimitReached(packetDropped)
attr title "packet drop: retry limit reached, count"
scalar Wireless_6_5m.hostF.wlan[0].mac packetDropRetryLimitReached:sum(packetBytes) 0
attr interpolationmode none
attr source packetDropReasonIsRetryLimitReached(packetDropped)
attr title "packet drop: retry limit reached, sum(packetBytes)"
scalar Wireless_6_5m.hostF.wlan[0].mac linkBroken:count 0
attr interpolationmode none
attr source linkBroken
attr title "link break, count"
scalar Wireless_6_5m.hostF.wlan[0].radio radioMode:count 5
attr interpolationmode sample-hold
attr source radioModeChanged
attr title "Radio mode, count"
scalar Wireless_6_5m.hostF.wlan[0].radio receptionState:count 27
attr interpolationmode sample-hold
attr source receptionStateChanged
attr title "Radio reception state, count"
scalar Wireless_6_5m.hostF.wlan[0].radio transmissionState:count 4
attr interpolationmode sample-hold
attr source transmissionStateChanged
attr title "Radio transmission state, count"
statistic Wireless_6_5m.hostF.wlan[0].radio minSnir:histogram
field count 12
field mean 6584.6725503987
field stddev 2507.8794792229
field min 1992.0017799465
field max 7968.0071200008
field sum 79016.070604784
field sqrsum 589479005.45707
attr source minimumSnir(packetSentToUpper)
attr title "Min SNIR, histogram"
bin	-inf	0
bin	400	0
bin	500	0
bin	600	0
bin	700	0
bin	800	0
bin	900	0
bin	1000	0
bin	1100	0
bin	1200	0
bin	1300	0
bin	1400	0
bin	1500	0
bin	1600	0
bin	1700	0
bin	1800	0
bin	1900	1
bin	2000	0
bin	2100	0
bin	2200	0
bin	2300	0
bin	2400	0
bin	2500	0
bin	2600	2
bin	2700	0
bin	2800	0
bin	2900	0
bin	3000	0
bin	3100	0
bin	3200	0
bin	3300	0
bin	3400	0
bin	3500	0
bin	3600	0
bin	3700	0
bin	3800	0
bin	3900	0
bin	4000	0
[...]
bin	-inf	0
bin	-0.5	0
bin	-0.48	0
bin	-0.46	0
bin	-0.44	0
bin	-0.42	0
bin	-0.4	0
bin	-0.38	0
bin	-0.36	0
bin	-0.34	0
bin	-0.32	0
bin	-0.3	0
bin	-0.28	0
bin	-0.26	0
bin	-0.24	0
bin	-0.22	0
bin	-0.2	0
bin	-0.18	0
bin	-0.16	0
bin	-0.14	0
bin	-0.12	0
bin	-0.1	0
bin	-0.08	0
bin	-0.06	0
bin	-0.04	0
bin	-0.02	0
bin	0	12
bin	0.02	0
bin	0.04	0
bin	0.06	0
bin	0.08	0
bin	0.1	0
bin	0.12	0
bin	0.14	0
bin	0.16	0
bin	0.18	0
bin	0.2	0
bin	0.22	0
bin	0.24	0
bin	0.26	0
bin	0.28	0
bin	0.3	0
bin	0.32	0
bin	0.34	0
bin	0.36	0
bin	0.38	0
bin	0.4	0
bin	0.42	0
bin	0.44	0
bin	0.46	0
bin	0.48	0
bin	0.5	0
statistic Wireless_6_5m.hostF.wlan[0].radio bitErrorRate:histogram
field count 12
field mean 0
field stddev 0
field min 0
field max 0
field sum 0
field sqrsum 0
attr source bitErrorRate(packetSentToUpper)
attr title "Bit error rate, histogram"
bin	-inf	0
bin	-0.5	0
bin	-0.48	0
bin	-0.46	0
bin	-0.44	0
bin	-0.42	0
bin	-0.4	0
bin	-0.38	0
bin	-0.36	0
bin	-0.34	0
bin	-0.32	0
bin	-0.3	0
bin	-0.28	0
bin	-0.26	0
bin	-0.24	0
bin	-0.22	0
bin	-0.2	0
bin	-0.18	0
bin	-0.16	0
bin	-0.14	0
bin	-0.12	0
bin	-0.1	0
bin	-0.08	0
bin	-0.06	0
bin	-0.04	0
bin	-0.02	0
bin	0	12
bin	0.02	0
bin	0.04	0
bin	0.06	0
bin	0.08	0
bin	0.1	0
bin	0.12	0
bin	0.14	0
bin	0.16	0
bin	0.18	0
bin	0.2	0
bin	0.22	0
bin	0.24	0
bin	0.26	0
bin	0.28	0
bin	0.3	0
bin	0.32	0
bin	0.34	0
bin	0.36	0
bin	0.38	0
bin	0.4	0
bin	0.42	0
bin	0.44	0
bin	0.46	0
bin	0.48	0
bin	0.5	0
statistic Wireless_6_5m.hostF.wlan[0].radio symbolErrorRate:histogram
field count 12
field mean 0
field stddev 0
field min 0
field max 0
field sum 0
field sqrsum 0
attr source symbolErrorRate(packetSentToUpper)
attr title "Symbol error rate, histogram"
bin	-inf	0
bin	-0.5	0
bin	-0.48	0
bin	-0.46	0
bin	-0.44	0
bin	-0.42	0
bin	-0.4	0
bin	-0.38	0
bin	-0.36	0
bin	-0.34	0
bin	-0.32	0
bin	-0.3	0
bin	-0.28	0
bin	-0.26	0
bin	-0.24	0
bin	-0.22	0
bin	-0.2	0
bin	-0.18	0
bin	-0.16	0
bin	-0.14	0
bin	-0.12	0
bin	-0.1	0
bin	-0.08	0
bin	-0.06	0
bin	-0.04	0
bin	-0.02	0
bin	0	12
bin	0.02	0
bin	0.04	0
bin	0.06	0
bin	0.08	0
bin	0.1	0
bin	0.12	0
bin	0.14	0
bin	0.16	0
bin	0.18	0
bin	0.2	0
bin	0.22	0
bin	0.24	0
bin	0.26	0
bin	0.28	0
bin	0.3	0
bin	0.32	0
bin	0.34	0
bin	0.36	0
bin	0.38	0
bin	0.4	0
bin	0.42	0
bin	0.44	0
bin	0.46	0
bin	0.48	0
bin	0.5	0
scalar Wireless_6_5m.hostF.ipv4.ip packetDropAddressResolutionFailed:count 0
attr interpolationmode none
attr source packetDropReasonIsAddressResolutionFailed(packetDropped)
attr title "packet drop: address resolution failed, count"
scalar Wireless_6_5m.hostF.ipv4.ip packetDropAddressResolutionFailed:sum(packetBytes) 0
attr interpolationmode none
attr source packetDropReasonIsAddressResolutionFailed(packetDropped)
attr title "packet drop: address resolution failed, sum(packetBytes)"
scalar Wireless_6_5m.hostF.ipv4.ip packetDropHopLimitReached:count 0
attr interpolationmode none
attr source packetDropReasonIsHopLimitReached(packetDropped)
attr title "packet drop: hop limit reached, count"
scalar Wireless_6_5m.hostF.ipv4.ip packetDropHopLimitReached:sum(packetBytes) 0
attr interpolationmode none
attr source packetDropReasonIsHopLimitReached(packetDropped)
attr title "packet drop: hop limit reached, sum(packetBytes)"
scalar Wireless_6_5m.hostF.ipv4.ip packetDropForwardingDisabled:count 0
attr interpolationmode none
attr source packetDropReasonIsForwardingDisabled(packetDropped)
attr title "packet drop: forwarding disabled, count"
scalar Wireless_6_5m.hostF.ipv4.ip packetDropForwardingDisabled:sum(packetBytes) 0
attr interpolationmode none
attr source packetDropReasonIsForwardingDisabled(packetDropped)
attr title "packet drop: forwarding disabled, sum(packetBytes)"
scalar Wireless_6_5m.hostF.ipv4.ip packetDropNoInterfaceFound:count 0
attr interpolationmode none
attr source packetDropReasonIsNoInterfaceFound(packetDropped)
attr title "packet drop: no interface found, count"
scalar Wireless_6_5m.hostF.ipv4.ip packetDropNoInterfaceFound:sum(packetBytes) 0
attr interpolationmode none
attr source packetDropReasonIsNoInterfaceFound(packetDropped)
attr title "packet drop: no interface found, sum(packetBytes)"
scalar Wireless_6_5m.hostF.ipv4.ip packetDropNoRouteFound:count 0
attr interpolationmode none
attr source packetDropReasonIsNoRouteFound(packetDropped)
attr title "packet drop: no route found, count"
scalar Wireless_6_5m.hostF.ipv4.ip packetDropNoRouteFound:sum(packetBytes) 0
attr interpolationmode none
attr source packetDropReasonIsNoRouteFound(packetDropped)
attr title "packet drop: no route found, sum(packetBytes)"
scalar Wireless_6_5m.hostF.ipv4.ip packetDropUndefined:count 0
attr interpolationmode none
attr source packetDropReasonIsUndefined(packetDropped)
attr title "packet drop: undefined, count"
scalar Wireless_6_5m.hostF.ipv4.ip packetDropUndefined:sum(packetBytes) 0
attr interpolationmode none
attr source packetDropReasonIsUndefined(packetDropped)
attr title "packet drop: undefined, sum(packetBytes)"
scalar Wireless_6_5m.hostF.udp packetReceived:count 1
attr interpolationmode none
attr source packetReceived
attr title "packets received, count"
scalar Wireless_6_5m.hostF.udp packetReceived:sum(packetBytes) 12
attr interpolationmode none
attr source packetReceived
attr title "packets received, sum(packetBytes)"
scalar Wireless_6_5m.hostF.udp packetSent:count 1
attr interpolationmode none
attr source packetSent
attr title "packets sent, count"
scalar Wireless_6_5m.hostF.udp packetSent:sum(packetBytes) 12
attr interpolationmode none
attr source packetSent
attr title "packets sent, sum(packetBytes)"
scalar Wireless_6_5m.hostF.udp passedUpPk:count 1
attr interpolationmode none
attr source packetSentToUpper
attr title "packets passed up, count"
scalar Wireless_6_5m.hostF.udp droppedPkWrongPort:count 0
attr interpolationmode none
attr source packetDropReasonIsNoPortFound(packetDropped)
attr title "packets dropped (wrong port), count"
scalar Wireless_6_5m.hostF.udp droppedPkBadChecksum:count 0
attr interpolationmode none
attr source packetDropReasonIsIncorrectlyReceived(packetDropped)
attr title "packets dropped (checksum error), count"
scalar Wireless_6_5m.hostG.lo[0].lo rcvdPkFromHl:count 0
attr interpolationmode none
attr source packetReceivedFromUpper
attr title "packets received from higher layer, count"
scalar Wireless_6_5m.hostG.lo[0].lo rcvdPkFromHl:sum(packetBytes) 0
attr interpolationmode none
attr source packetReceivedFromUpper
attr title "packets received from higher layer, sum(packetBytes)"
scalar Wireless_6_5m.hostG.lo[0].lo passedUpPk:count 0
attr interpolationmode none
attr source packetSentToUpper
attr title "packets passed to higher layer, count"
scalar Wireless_6_5m.hostG.lo[0].lo passedUpPk:sum(packetBytes) 0
attr interpolationmode none
attr source packetSentToUpper
attr title "packets passed to higher layer, sum(packetBytes)"
scalar Wireless_6_5m.hostG.wlan[0].mac.queue packetPopped:count 1
attr interpolationmode none
attr title "packet popped, count"
scalar Wireless_6_5m.hostG.wlan[0].mac.queue packetPopped:sum(packetBytes) 59
attr interpolationmode none
attr title "packet popped, sum(packetBytes)"
statistic Wireless_6_5m.hostG.wlan[0].mac.queue queueingTime:histogram
field count 1
field mean 0
field stddev -nan
field min 0
field max 0
field sum 0
field sqrsum 0
attr interpolationmode none
attr source queueingTime(packetPopped)
attr title "queueing times, histogram"
attr unit s
bin	-inf	0
bin	-0.5	0
bin	-0.48	0
bin	-0.46	0
bin	-0.44	0
bin	-0.42	0
bin	-0.4	0
bin	-0.38	0
bin	-0.36	0
bin	-0.34	0
bin	-0.32	0
bin	-0.3	0
bin	-0.28	0
bin	-0.26	0
bin	-0.24	0
bin	-0.22	0
bin	-0.2	0
bin	-0.18	0
bin	-0.16	0
bin	-0.14	0
bin	-0.12	0
bin	-0.1	0
bin	-0.08	0
bin	-0.06	0
bin	-0.04	0
bin	-0.02	0
bin	0	1
bin	0.02	0
bin	0.04	0
bin	0.06	0
bin	0.08	0
bin	0.1	0
bin	0.12	0
bin	0.14	0
bin	0.16	0
bin	0.18	0
bin	0.2	0
bin	0.22	0
bin	0.24	0
bin	0.26	0
bin	0.28	0
bin	0.3	0
bin	0.32	0
bin	0.34	0
bin	0.36	0
bin	0.38	0
bin	0.4	0
bin	0.42	0
bin	0.44	0
bin	0.46	0
bin	0.48	0
bin	0.5	0
scalar Wireless_6_5m.hostG.wlan[0].mac.queue queueLength:max 1
attr interpolationmode sample-hold
attr source "count(packetPushed) - count(packetPopped) - count(packetRemoved) - count(packetDropped)"
attr title "queue length, max"
scalar Wireless_6_5m.hostG.wlan[0].mac.queue queueLength:timeavg 0
attr interpolationmode sample-hold
attr source "count(packetPushed) - count(packetPopped) - count(packetRemoved) - count(packetDropped)"
attr title "queue length, timeavg"
scalar Wireless_6_5m.hostG.wlan[0].mac.queue packetPushed:count 1
attr interpolationmode none
attr title "packet pushed, count"
scalar Wireless_6_5m.hostG.wlan[0].mac.queue packetPushed:sum(packetBytes) 59
attr interpolationmode none
attr title "packet pushed, sum(packetBytes)"
scalar Wireless_6_5m.hostG.wlan[0].mac.queue packetDropQueueOverflow:count 0
attr interpolationmode none
attr source packetDropReasonIsQueueOverflow(packetDropped)
attr title "packet drops: queue overflow, count"
scalar Wireless_6_5m.hostG.wlan[0].mac.queue packetDropQueueOverflow:sum(packetBytes) 0
attr interpolationmode none
attr source packetDropReasonIsQueueOverflow(packetDropped)
attr title "packet drops: queue overflow, sum(packetBytes)"
scalar Wireless_6_5m.hostG.wlan[0].mac.queue packetRemoved:count 0
attr interpolationmode none
attr title "packets removed, count"
scalar Wireless_6_5m.hostG.wlan[0].mac.queue packetRemoved:sum(packetBytes) 0
attr interpolationmode none
attr title "packets removed, sum(packetBytes)"
scalar Wireless_6_5m.hostG.wlan[0].mac numRetry 0
scalar Wireless_6_5m.hostG.wlan[0].mac numSentWithoutRetry 1
scalar Wireless_6_5m.hostG.wlan[0].mac numGivenUp 0
scalar Wireless_6_5m.hostG.wlan[0].mac numCollision 0
scalar Wireless_6_5m.hostG.wlan[0].mac numSent 1
scalar Wireless_6_5m.hostG.wlan[0].mac numReceived 0
scalar Wireless_6_5m.hostG.wlan[0].mac numSentBroadcast 0
scalar Wireless_6_5m.hostG.wlan[0].mac numReceivedBroadcast 1
scalar Wireless_6_5m.hostG.wlan[0].mac packetDropIncorrectlyReceived:count 0
attr interpolationmode none
attr source packetDropReasonIsIncorrectlyReceived(packetDropped)
attr title "packet drop: incorrectly received, count"
scalar Wireless_6_5m.hostG.wlan[0].mac packetDropIncorrectlyReceived:sum(packetBytes) 0
attr interpolationmode none
attr source packetDropReasonIsIncorrectlyReceived(packetDropped)
attr title "packet drop: incorrectly received, sum(packetBytes)"
scalar Wireless_6_5m.hostG.wlan[0].mac packetDropNotAddressedToUs:count 5
attr interpolationmode none
attr source packetDropReasonIsNotAddressedToUs(packetDropped)
attr title "packet drop: not addressed to us, count"
scalar Wireless_6_5m.hostG.wlan[0].mac packetDropNotAddressedToUs:sum(packetBytes) 295
attr interpolationmode none
attr source packetDropReasonIsNotAddressedToUs(packetDropped)
attr title "packet drop: not addressed to us, sum(packetBytes)"
scalar Wireless_6_5m.hostG.wlan[0].mac packetDropQueueOverflow:count 0
attr interpolationmode none
attr source packetDropReasonIsQueueOverflow(packetDropped)
attr title "packet drop: queue overflow, count"
scalar Wireless_6_5m.hostG.wlan[0].mac packetDropQueueOverflow:sum(packetBytes) 0
attr interpolationmode none
attr source packetDropReasonIsQueueOverflow(packetDropped)
attr title "packet drop: queue overflow, sum(packetBytes)"
scalar Wireless_6_5m.hostG.wlan[0].mac packetDropRetryLimitReached:count 0
attr interpolationmode none
attr source packetDropReasonIsRetryLimitReached(packetDropped)
attr title "packet drop: retry limit reached, count"
scalar Wireless_6_5m.hostG.wlan[0].mac packetDropRetryLimitReached:sum(packetBytes) 0
attr interpolationmode none
attr source packetDropReasonIsRetryLimitReached(packetDropped)
attr title "packet drop: retry limit reached, sum(packetBytes)"
scalar Wireless_6_5m.hostG.wlan[0].mac linkBroken:count 0
attr interpolationmode none
attr source linkBroken
attr title "link break, count"
scalar Wireless_6_5m.hostG.wlan[0].radio radioMode:count 5
attr interpolationmode sample-hold
attr source radioModeChanged
attr title "Radio mode, count"
scalar Wireless_6_5m.hostG.wlan[0].radio receptionState:count 27
attr interpolationmode sample-hold
attr source receptionStateChanged
attr title "Radio reception state, count"
scalar Wireless_6_5m.hostG.wlan[0].radio transmissionState:count 4
attr interpolationmode sample-hold
attr source transmissionStateChanged
attr title "Radio transmission state, count"
statistic Wireless_6_5m.hostG.wlan[0].radio minSnir:histogram
field count 12
field mean 6584.6725503987
field stddev 2507.8794792229
field min 1992.0017799465
field max 7968.0071200008
field sum 79016.070604784
field sqrsum 589479005.45707
attr source minimumSnir(packetSentToUpper)
attr title "Min SNIR, histogram"
bin	-inf	0
bin	400	0
bin	500	0
bin	600	0
bin	700	0
bin	800	0
bin	900	0
bin	1000	0
bin	1100	0
bin	1200	0
bin	1300	0
bin	1400	0
bin	1500	0
bin	1600	0
bin	1700	0
bin	1800	0
bin	1900	1
bin	2000	0
bin	2100	0
bin	2200	0
bin	2300	0
bin	2400	0
bin	2500	0
bin	2600	2
bin	2700	0
bin	2800	0
bin	2900	0
bin	3000	0
bin	3100	0
bin	3200	0
bin	3300	0
bin	3400	0
bin	3500	0
bin	3600	0
bin	3700	0
bin	3800	0
bin	3900	0
bin	4000	0
bin	4100	0
bin	4200	0
bin	4300	0
bin	4400	0
bin	4500	0
bin	4600	0
bin	4700	0
bin	4800	0
bin	4900	0
bin	5000	0
bin	5100	0
bin	5200	0
bin	5300	0
bin	5400	0
bin	5500	0
bin	5600	0
bin	5700	0
bin	5800	0
bin	5900	0
bin	6000	0
bin	6100	0
bin	6200	0
bin	6300	0
bin	6400	0
bin	6500	0
bin	6600	0
bin	6700	0
bin	6800	0
bin	6900	0
bin	7000	0
bin	7100	0
bin	7200	0
bin	7300	0
bin	7400	0
bin	7500	0
bin	7600	0
bin	7700	0
bin	7800	0
bin	7900	9
bin	8000	0
bin	8100	0
bin	8200	0
bin	8300	0
bin	8400	0
bin	8500	0
bin	8600	0
bin	8700	0
bin	8800	0
bin	8900	0
bin	9000	0
bin	9100	0
bin	9200	0
bin	9300	0
bin	9400	0
bin	9500	0
statistic Wireless_6_5m.hostG.wlan[0].radio packetErrorRate:histogram
field count 12
field mean 0
field stddev 0
field min 0
field max 0
field sum 0
field sqrsum 0
attr source packetErrorRate(packetSentToUpper)
attr title "Packet error rate, histogram"
bin	-inf	0
bin	-0.5	0
bin	-0.48	0
bin	-0.46	0
bin	-0.44	0
bin	-0.42	0
bin	-0.4	0
bin	-0.38	0
bin	-0.36	0
bin	-0.34	0
bin	-0.32	0
bin	-0.3	0
bin	-0.28	0
bin	-0.26	0
bin	-0.24	0
bin	-0.22	0
bin	-0.2	0
bin	-0.18	0
bin	-0.16	0
bin	-0.14	0
bin	-0.12	0
bin	-0.1	0
bin	-0.08	0
bin	-0.06	0
bin	-0.04	0
bin	-0.02	0
bin	0	12
bin	0.02	0
bin	0.04	0
bin	0.06	0
bin	0.08	0
bin	0.1	0
bin	0.12	0
bin	0.14	0
bin	0.16	0
bin	0.18	0
bin	0.2	0
bin	0.22	0
bin	0.24	0
bin	0.26	0
bin	0.28	0
bin	0.3	0
bin	0.32	0
bin	0.34	0
bin	0.36	0
bin	0.38	0
bin	0.4	0
bin	0.42	0
bin	0.44	0
bin	0.46	0
bin	0.48	0
bin	0.5	0
statistic Wireless_6_5m.hostG.wlan[0].radio bitErrorRate:histogram
field count 12
field mean 0
field stddev 0
field min 0
field max 0
field sum 0
field sqrsum 0
attr source bitErrorRate(packetSentToUpper)
attr title "Bit error rate, histogram"
bin	-inf	0
bin	-0.5	0
bin	-0.48	0
bin	-0.46	0
bin	-0.44	0
bin	-0.42	0
bin	-0.4	0
bin	-0.38	0
bin	-0.36	0
bin	-0.34	0
bin	-0.32	0
bin	-0.3	0
bin	-0.28	0
bin	-0.26	0
bin	-0.24	0
bin	-0.22	0
bin	-0.2	0
bin	-0.18	0
bin	-0.16	0
bin	-0.14	0
bin	-0.12	0
bin	-0.1	0
bin	-0.08	0
bin	-0.06	0
bin	-0.04	0
bin	-0.02	0
bin	0	12
bin	0.02	0
bin	0.04	0
bin	0.06	0
bin	0.08	0
bin	0.1	0
bin	0.12	0
bin	0.14	0
bin	0.16	0
bin	0.18	0
bin	0.2	0
bin	0.22	0
bin	0.24	0
bin	0.26	0
bin	0.28	0
bin	0.3	0
bin	0.32	0
bin	0.34	0
bin	0.36	0
bin	0.38	0
bin	0.4	0
bin	0.42	0
bin	0.44	0
bin	0.46	0
bin	0.48	0
bin	0.5	0
statistic Wireless_6_5m.hostG.wlan[0].radio symbolErrorRate:histogram
field count 12
field mean 0
field stddev 0
field min 0
field max 0
field sum 0
field sqrsum 0
attr source symbolErrorRate(packetSentToUpper)
attr title "Symbol error rate, histogram"
bin	-inf	0
bin	-0.5	0
bin	-0.48	0
bin	-0.46	0
bin	-0.44	0
bin	-0.42	0
bin	-0.4	0
bin	-0.38	0
bin	-0.36	0
bin	-0.34	0
bin	-0.32	0
bin	-0.3	0
bin	-0.28	0
bin	-0.26	0
bin	-0.24	0
bin	-0.22	0
bin	-0.2	0
bin	-0.18	0
bin	-0.16	0
bin	-0.14	0
bin	-0.12	0
bin	-0.1	0
bin	-0.08	0
bin	-0.06	0
bin	-0.04	0
bin	-0.02	0
bin	0	12
bin	0.02	0
bin	0.04	0
bin	0.06	0
bin	0.08	0
bin	0.1	0
bin	0.12	0
bin	0.14	0
bin	0.16	0
bin	0.18	0
bin	0.2	0
bin	0.22	0
bin	0.24	0
bin	0.26	0
bin	0.28	0
bin	0.3	0
bin	0.32	0
bin	0.34	0
bin	0.36	0
bin	0.38	0
bin	0.4	0
bin	0.42	0
bin	0.44	0
bin	0.46	0
bin	0.48	0
bin	0.5	0
scalar Wireless_6_5m.hostG.ipv4.ip packetDropAddressResolutionFailed:count 0
attr interpolationmode none
attr source packetDropReasonIsAddressResolutionFailed(packetDropped)
attr title "packet drop: address resolution failed, count"
scalar Wireless_6_5m.hostG.ipv4.ip packetDropAddressResolutionFailed:sum(packetBytes) 0
attr interpolationmode none
attr source packetDropReasonIsAddressResolutionFailed(packetDropped)
attr title "packet drop: address resolution failed, sum(packetBytes)"
scalar Wireless_6_5m.hostG.ipv4.ip packetDropHopLimitReached:count 0
attr interpolationmode none
attr source packetDropReasonIsHopLimitReached(packetDropped)
attr title "packet drop: hop limit reached, count"
scalar Wireless_6_5m.hostG.ipv4.ip packetDropHopLimitReached:sum(packetBytes) 0
attr interpolationmode none
attr source packetDropReasonIsHopLimitReached(packetDropped)
attr title "packet drop: hop limit reached, sum(packetBytes)"
scalar Wireless_6_5m.hostG.ipv4.ip packetDropForwardingDisabled:count 0
attr interpolationmode none
attr source packetDropReasonIsForwardingDisabled(packetDropped)
attr title "packet drop: forwarding disabled, count"
scalar Wireless_6_5m.hostG.ipv4.ip packetDropForwardingDisabled:sum(packetBytes) 0
attr interpolationmode none
attr source packetDropReasonIsForwardingDisabled(packetDropped)
attr title "packet drop: forwarding disabled, sum(packetBytes)"
scalar Wireless_6_5m.hostG.ipv4.ip packetDropNoInterfaceFound:count 0
attr interpolationmode none
attr source packetDropReasonIsNoInterfaceFound(packetDropped)
attr title "packet drop: no interface found, count"
scalar Wireless_6_5m.hostG.ipv4.ip packetDropNoInterfaceFound:sum(packetBytes) 0
attr interpolationmode none
attr source packetDropReasonIsNoInterfaceFound(packetDropped)
attr title "packet drop: no interface found, sum(packetBytes)"
scalar Wireless_6_5m.hostG.ipv4.ip packetDropNoRouteFound:count 0
attr interpolationmode none
attr source packetDropReasonIsNoRouteFound(packetDropped)
attr title "packet drop: no route found, count"
scalar Wireless_6_5m.hostG.ipv4.ip packetDropNoRouteFound:sum(packetBytes) 0
attr interpolationmode none
attr source packetDropReasonIsNoRouteFound(packetDropped)
attr title "packet drop: no route found, sum(packetBytes)"
scalar Wireless_6_5m.hostG.ipv4.ip packetDropUndefined:count 0
attr interpolationmode none
attr source packetDropReasonIsUndefined(packetDropped)
attr title "packet drop: undefined, count"
scalar Wireless_6_5m.hostG.ipv4.ip packetDropUndefined:sum(packetBytes) 0
attr interpolationmode none
attr source packetDropReasonIsUndefined(packetDropped)
attr title "packet drop: undefined, sum(packetBytes)"
scalar Wireless_6_5m.hostG.udp packetReceived:count 1
attr interpolationmode none
attr source packetReceived
attr title "packets received, count"
scalar Wireless_6_5m.hostG.udp packetReceived:sum(packetBytes) 12
attr interpolationmode none
attr source packetReceived
attr title "packets received, sum(packetBytes)"
scalar Wireless_6_5m.hostG.udp packetSent:count 1
attr interpolationmode none
attr source packetSent
attr title "packets sent, count"
scalar Wireless_6_5m.hostG.udp packetSent:sum(packetBytes) 12
attr interpolationmode none
attr source packetSent
attr title "packets sent, sum(packetBytes)"
scalar Wireless_6_5m.hostG.udp passedUpPk:count 1
attr interpolationmode none
attr source packetSentToUpper
attr title "packets passed up, count"
scalar Wireless_6_5m.hostG.udp droppedPkWrongPort:count 0
attr interpolationmode none
attr source packetDropReasonIsNoPortFound(packetDropped)
attr title "packets dropped (wrong port), count"
scalar Wireless_6_5m.hostG.udp droppedPkBadChecksum:count 0
attr interpolationmode none
attr source packetDropReasonIsIncorrectlyReceived(packetDropped)
attr title "packets dropped (checksum error), count"

