file 11261 1591825131                                           
version 2
run Wireless01-0-20200610-18:38:40-19660
attr configname Wireless01
attr datetime 20200610-18:38:40
attr experiment Wireless01
attr inifile omnetpp.ini
attr iterationvars ""
attr iterationvarsf ""
attr measurement ""
attr network WirelessA
attr processid 19660
attr repetition 0
attr replication #0
attr resultdir results
attr runnumber 0
attr seedset 0
param *.host*.ipv4.arp.typename "\"GlobalArp\""
param *.hostA.numApps 1
param *.hostA.app[0].typename "\"TDOAApp\""
param *.hostA.app[0].destAddresses "\"Broadcast\""
param *.hostA.app[0].destPort 5000
param *.hostA.app[0].localPort 6000
param *.hostA.app[0].isReceiver false
param *.hostA.app[0].packetName "\"UDPData\""
param *.hostB.numApps 1
param *.hostB.app[0].typename "\"TDOAApp\""
param *.hostB.app[0].localPort 5000
param *.hostB.app[0].destPort 6000
param *.hostB.app[0].destAddresses "\"hostA\""
param *.hostC.numApps 1
param *.hostC.app[0].typename "\"TDOAApp\""
param *.hostC.app[0].localPort 5000
param *.hostC.app[0].destPort 6000
param *.hostC.app[0].destAddresses "\"hostA\""
param *.host*.wlan[0].typename "\"AckingWirelessInterface\""
param *.host*.wlan[0].mac.useAck false
param *.host*.wlan[0].mac.fullDuplex false
param *.host*.wlan[0].radio.transmitter.communicationRange 500m
param *.host*.wlan[0].radio.receiver.ignoreInterference true
param *.host*.wlan[0].mac.headerLength 23B
param **.ip.limitedBroadcast true
param *.host*.**.bitrate 1Mbps

vector 0 WirelessA.hostA.wlan[0].radio radioMode:vector ETV
attr interpolationmode sample-hold
attr source radioModeChanged
attr title "Radio mode, vector"
vector 1 WirelessA.hostB.wlan[0].radio radioMode:vector ETV
attr interpolationmode sample-hold
attr source radioModeChanged
attr title "Radio mode, vector"
vector 2 WirelessA.hostC.wlan[0].radio radioMode:vector ETV
attr interpolationmode sample-hold
attr source radioModeChanged
attr title "Radio mode, vector"
vector 3 WirelessA.hostA.wlan[0].radio receptionState:vector ETV
attr interpolationmode sample-hold
attr source receptionStateChanged
attr title "Radio reception state, vector"
vector 4 WirelessA.hostB.wlan[0].radio receptionState:vector ETV
attr interpolationmode sample-hold
attr source receptionStateChanged
attr title "Radio reception state, vector"
vector 5 WirelessA.hostC.wlan[0].radio receptionState:vector ETV
attr interpolationmode sample-hold
attr source receptionStateChanged
attr title "Radio reception state, vector"
vector 6 WirelessA.hostA.udp packetSent:vector(packetBytes) ETV
attr interpolationmode none
attr source packetSent
attr title "packets sent, vector(packetBytes)"
vector 7 WirelessA.hostA.lo[0].lo rcvdPkFromHl:vector(packetBytes) ETV
attr interpolationmode none
attr source packetReceivedFromUpper
attr title "packets received from higher layer, vector(packetBytes)"
vector 8 WirelessA.hostA.lo[0].lo passedUpPk:vector(packetBytes) ETV
attr interpolationmode none
attr source packetSentToUpper
attr title "packets passed to higher layer, vector(packetBytes)"
vector 9 WirelessA.hostA.wlan[0].mac rcvdPkFromHl:vector(packetBytes) ETV
attr interpolationmode none
attr source packetReceivedFromUpper
attr title "packets received from higher layer, vector(packetBytes)"
vector 10 WirelessA.hostA.wlan[0].mac.queue packetPushed:vector(packetBytes) ETV
attr interpolationmode none
attr title "packet pushed, vector(packetBytes)"
vector 11 WirelessA.hostA.wlan[0].mac.queue queueLength:vector ETV
attr interpolationmode sample-hold
attr source "count(packetPushed) - count(packetPopped) - count(packetRemoved) - count(packetDropped)"
attr title "queue length, vector"
vector 12 WirelessA.hostA.wlan[0].mac.queue packetPopped:vector(packetBytes) ETV
attr interpolationmode none
attr title "packet popped, vector(packetBytes)"
vector 13 WirelessA.hostA.wlan[0].mac.queue queueingTime:vector ETV
attr interpolationmode none
attr source queueingTime(packetPopped)
attr title "queueing times, vector"
attr unit s
vector 14 WirelessA.hostA.wlan[0].radio transmissionState:vector ETV
attr interpolationmode sample-hold
attr source transmissionStateChanged
attr title "Radio transmission state, vector"
vector 15 WirelessA.hostA.wlan[0].mac sentDownPk:vector(packetBytes) ETV
attr interpolationmode none
attr source packetSentToLower
attr title "packets sent to lower layer, vector(packetBytes)"
vector 16 WirelessA.hostA.udp packetReceived:vector(packetBytes) ETV
attr interpolationmode none
attr source packetReceived
attr title "packets received, vector(packetBytes)"
vector 17 WirelessA.hostA.udp droppedPkWrongPort:vector(count) ETV
attr interpolationmode none
attr source packetDropReasonIsNoPortFound(packetDropped)
attr title "packets dropped (wrong port), vector(count)"
vector 18 WirelessA.hostB.wlan[0].mac rcvdPkFromLl:vector(packetBytes) ETV
attr interpolationmode none
attr source packetReceivedFromLower
attr title "packets received from lower layer, vector(packetBytes)"
vector 19 WirelessA.hostB.wlan[0].mac passedUpPk:vector(packetBytes) ETV
attr interpolationmode none
attr source packetSentToUpper
attr title "packets passed to higher layer, vector(packetBytes)"
vector 20 WirelessA.hostB.udp packetReceived:vector(packetBytes) ETV
attr interpolationmode none
attr source packetReceived
attr title "packets received, vector(packetBytes)"
vector 21 WirelessA.hostB.udp passedUpPk:vector(count) ETV
attr interpolationmode none
attr source packetSentToUpper
attr title "packets passed up, vector(count)"
vector 22 WirelessA.hostB.udp packetSent:vector(packetBytes) ETV
attr interpolationmode none
attr source packetSent
attr title "packets sent, vector(packetBytes)"
vector 23 WirelessA.hostB.wlan[0].mac rcvdPkFromHl:vector(packetBytes) ETV
attr interpolationmode none
attr source packetReceivedFromUpper
attr title "packets received from higher layer, vector(packetBytes)"
vector 24 WirelessA.hostB.wlan[0].mac.queue packetPushed:vector(packetBytes) ETV
attr interpolationmode none
attr title "packet pushed, vector(packetBytes)"
vector 25 WirelessA.hostB.wlan[0].mac.queue queueLength:vector ETV
attr interpolationmode sample-hold
attr source "count(packetPushed) - count(packetPopped) - count(packetRemoved) - count(packetDropped)"
attr title "queue length, vector"
vector 26 WirelessA.hostB.wlan[0].mac.queue packetPopped:vector(packetBytes) ETV
attr interpolationmode none
attr title "packet popped, vector(packetBytes)"
vector 27 WirelessA.hostB.wlan[0].mac.queue queueingTime:vector ETV
attr interpolationmode none
attr source queueingTime(packetPopped)
attr title "queueing times, vector"
attr unit s
vector 28 WirelessA.hostB.wlan[0].radio transmissionState:vector ETV
attr interpolationmode sample-hold
attr source transmissionStateChanged
attr title "Radio transmission state, vector"
vector 29 WirelessA.hostB.wlan[0].mac sentDownPk:vector(packetBytes) ETV
attr interpolationmode none
attr source packetSentToLower
attr title "packets sent to lower layer, vector(packetBytes)"
vector 30 WirelessA.hostC.wlan[0].mac rcvdPkFromLl:vector(packetBytes) ETV
attr interpolationmode none
attr source packetReceivedFromLower
attr title "packets received from lower layer, vector(packetBytes)"
vector 31 WirelessA.hostC.wlan[0].mac passedUpPk:vector(packetBytes) ETV
attr interpolationmode none
attr source packetSentToUpper
attr title "packets passed to higher layer, vector(packetBytes)"
vector 32 WirelessA.hostC.udp packetReceived:vector(packetBytes) ETV
attr interpolationmode none
attr source packetReceived
attr title "packets received, vector(packetBytes)"
vector 33 WirelessA.hostC.udp passedUpPk:vector(count) ETV
attr interpolationmode none
attr source packetSentToUpper
attr title "packets passed up, vector(count)"
vector 34 WirelessA.hostC.udp packetSent:vector(packetBytes) ETV
attr interpolationmode none
attr source packetSent
attr title "packets sent, vector(packetBytes)"
vector 35 WirelessA.hostC.wlan[0].mac rcvdPkFromHl:vector(packetBytes) ETV
attr interpolationmode none
attr source packetReceivedFromUpper
attr title "packets received from higher layer, vector(packetBytes)"
vector 36 WirelessA.hostC.wlan[0].mac.queue packetPushed:vector(packetBytes) ETV
attr interpolationmode none
attr title "packet pushed, vector(packetBytes)"
vector 37 WirelessA.hostC.wlan[0].mac.queue queueLength:vector ETV
attr interpolationmode sample-hold
attr source "count(packetPushed) - count(packetPopped) - count(packetRemoved) - count(packetDropped)"
attr title "queue length, vector"
vector 38 WirelessA.hostC.wlan[0].mac.queue packetPopped:vector(packetBytes) ETV
attr interpolationmode none
attr title "packet popped, vector(packetBytes)"
vector 39 WirelessA.hostC.wlan[0].mac.queue queueingTime:vector ETV
attr interpolationmode none
attr source queueingTime(packetPopped)
attr title "queueing times, vector"
attr unit s
vector 40 WirelessA.hostC.wlan[0].radio transmissionState:vector ETV
attr interpolationmode sample-hold
attr source transmissionStateChanged
attr title "Radio transmission state, vector"
vector 41 WirelessA.hostC.wlan[0].mac sentDownPk:vector(packetBytes) ETV
attr interpolationmode none
attr source packetSentToLower
attr title "packets sent to lower layer, vector(packetBytes)"
vector 42 WirelessA.hostA.wlan[0].mac rcvdPkFromLl:vector(packetBytes) ETV
attr interpolationmode none
attr source packetReceivedFromLower
attr title "packets received from lower layer, vector(packetBytes)"
vector 43 WirelessA.hostA.wlan[0].mac passedUpPk:vector(packetBytes) ETV
attr interpolationmode none
attr source packetSentToUpper
attr title "packets passed to higher layer, vector(packetBytes)"
vector 44 WirelessA.hostA.udp passedUpPk:vector(count) ETV
attr interpolationmode none
attr source packetSentToUpper
attr title "packets passed up, vector(count)"
0	9718 49 0 16 0 0.000536 5 0 3 7 17
1	9767 68 0 39 0 0.001072707424 5 0 3 7 17
2	9835 68 0 40 0 0.001072954136 5 0 3 7 17
3	9903 99 0 48 0 0.001073908272 6 0 3 8 16
4	10002 118 0 47 0 0.001073592978 6 0 3 8 16
5	10120 118 0 41 0 0.001073346266 6 0 3 8 16
6	10238 9 3 3 0 0 1 12 12 12 144
7	10247 9 9 9 0 0 1 32 32 32 1024
8	10256 9 9 9 0 0 1 32 32 32 1024
9	10265 10 10 10 0 0 1 32 32 32 1024
10	10275 11 10 10 0 0 1 32 32 32 1024
11	10286 20 10 10 0 0 2 0 1 1 1
12	10306 11 10 10 0 0 1 32 32 32 1024
13	10317 10 10 10 0 0 1 0 0 0 0
14	10327 54 10 16 0 0.000536 4 0 2 4 6
15	10381 11 10 10 0 0 1 55 55 55 3025
16	10392 35 13 45 0 0.001073414848 2 12 12 24 288
17	10427 10 13 13 0 0 1 1 1 1 1
18	10437 24 18 18 0.000536707424 0.000536707424 1 55 55 55 3025
19	10461 24 18 18 0.000536707424 0.000536707424 1 32 32 32 1024
20	10485 24 20 20 0.000536707424 0.000536707424 1 12 12 12 144
21	10509 23 20 20 0.000536707424 0.000536707424 1 1 1 1 1
22	10532 24 22 22 0.000536707424 0.000536707424 1 12 12 12 144
23	10556 24 24 24 0.000536707424 0.000536707424 1 32 32 32 1024
24	10580 24 24 24 0.000536707424 0.000536707424 1 32 32 32 1024
25	10604 46 24 24 0.000536707424 0.000536707424 2 0 1 1 1
26	10650 24 24 24 0.000536707424 0.000536707424 1 32 32 32 1024
27	10674 23 24 24 0.000536707424 0.000536707424 1 0 0 0 0
28	10697 92 24 39 0.000536707424 0.001072707424 4 0 2 4 6
29	10789 24 24 24 0.000536707424 0.000536707424 1 55 55 55 3025
30	10813 24 27 27 0.000536954136 0.000536954136 1 55 55 55 3025
31	10837 24 27 27 0.000536954136 0.000536954136 1 32 32 32 1024
32	10861 24 29 29 0.000536954136 0.000536954136 1 12 12 12 144
33	10885 23 29 29 0.000536954136 0.000536954136 1 1 1 1 1
34	10908 24 31 31 0.000536954136 0.000536954136 1 12 12 12 144
35	10932 24 33 33 0.000536954136 0.000536954136 1 32 32 32 1024
36	10956 24 33 33 0.000536954136 0.000536954136 1 32 32 32 1024
37	10980 46 33 33 0.000536954136 0.000536954136 2 0 1 1 1
38	11026 24 33 33 0.000536954136 0.000536954136 1 32 32 32 1024
39	11050 23 33 33 0.000536954136 0.000536954136 1 0 0 0 0
40	11073 92 33 40 0.000536954136 0.001072954136 4 0 2 4 6
41	11165 24 33 33 0.000536954136 0.000536954136 1 55 55 55 3025
42	11189 24 43 43 0.001073414848 0.001073414848 1 55 55 55 3025
43	11213 24 43 43 0.001073414848 0.001073414848 1 32 32 32 1024
44	11237 23 45 45 0.001073414848 0.001073414848 1 1 1 1 1

