version 2
run Wireless01-198-20200710-12:28:31-3615
attr configname Wireless01
attr datetime 20200710-12:28:31
attr experiment Wireless01
attr inifile omnetpp.ini
attr iterationvars $name=Wireless_12_1m
attr iterationvarsf name=Wireless#_12#_1m-
attr measurement $name=Wireless_12_1m
attr network "${name=Wireless_3_1m,Wireless_3_5m, Wireless_3_10m, Wireless_6_1m, Wireless_6_5m, Wireless_6_10m, Wireless_12_1m, Wireless_12_5m, Wireless_12_10m }"
attr processid 3615
attr repetition 18
attr replication #18
attr resultdir results
attr runnumber 198
attr seedset 198
itervar name Wireless_12_1m
param *.hostA.numApps 1
param *.hostA.app[0].typename "\"TDOAApp\""
param *.hostA.app[0].destAddresses "\"Broadcast\""
param *.hostA.app[0].destPort 5000
param *.hostA.app[0].localPort 6000
param *.hostA.app[0].isReceiver false
param *.hostA.app[0].Nome_arquivo "\"Wireless_12_1m.csv\""
param *.host*.numApps 1
param *.host*.app[0].typename "\"TDOAApp\""
param *.host*.app[0].localPort 5000
param *.host*.app[0].destPort 6000
param *.host*.app[0].destAddresses "\"hostA\""
param *.host*.app[0].isReceiver true
param *.host*.wlan[0].typename "\"WirelessInterface\""
param *.radioMedium.typename "\"ApskScalarRadioMedium\""
param *.radioMedium.backgroundNoise.power -90dBm
param *.radioMedium.mediumLimitCache.centerFrequency 2GHz
param *.host*.wlan[0].radio.typename "\"ApskScalarRadio\""
param *.host*.wlan[0].radio.centerFrequency 2GHz
param *.host*.wlan[0].radio.bandwidth 2MHz
param *.host*.wlan[0].radio.transmitter.power 1.4mW
param *.host*.wlan[0].radio.transmitter.preambleDuration 10us
param *.host*.wlan[0].radio.transmitter.headerLength 8B
param *.host*.wlan[0].radio.receiver.sensitivity -85dBm
param *.host*.wlan[0].radio.receiver.energyDetection -85dBm
param *.host*.wlan[0].radio.receiver.snirThreshold 4dB
param *.host*.wlan[0].mac.typename "\"CsmaCaMac\""
param *.host*.wlan[0].mac.ackTimeout 300us
param *.host*.wlan[0].mac.useAck true
param *.host*.wlan[0].mac.fullDuplex false
param *.host*.wlan[0].radio.receiver.ignoreInterference true
param *.host*.wlan[0].mac.headerLength 23B
param *.host*.**.bitrate 1Mbps
param *.host*.ipv4.arp.typename "\"GlobalArp\""
param **.ip.limitedBroadcast true

scalar Wireless_12_1m.radioMedium.propagation "Arrival computation count" 348
scalar Wireless_12_1m.radioMedium "transmission count" 29
scalar Wireless_12_1m.radioMedium "signal send count" 348
scalar Wireless_12_1m.radioMedium "reception computation count" 348
scalar Wireless_12_1m.radioMedium "interference computation count" 1056
scalar Wireless_12_1m.radioMedium "reception decision computation count" 322
scalar Wireless_12_1m.radioMedium "listening decision computation count" 390
scalar Wireless_12_1m.radioMedium "reception cache hit" 85.584092792046
attr unit %
scalar Wireless_12_1m.radioMedium "interference cache hit" 66.666666666667
attr unit %
scalar Wireless_12_1m.radioMedium "noise cache hit" 0
attr unit %
scalar Wireless_12_1m.radioMedium "snir cache hit" 50
attr unit %
scalar Wireless_12_1m.radioMedium "reception decision cache hit" 50
attr unit %
scalar Wireless_12_1m.radioMedium "reception result cache hit" 0
attr unit %
scalar Wireless_12_1m.hostA.lo[0].lo rcvdPkFromHl:count 1
attr interpolationmode none
attr source packetReceivedFromUpper
attr title "packets received from higher layer, count"
scalar Wireless_12_1m.hostA.lo[0].lo rcvdPkFromHl:sum(packetBytes) 32
attr interpolationmode none
attr source packetReceivedFromUpper
attr title "packets received from higher layer, sum(packetBytes)"
scalar Wireless_12_1m.hostA.lo[0].lo passedUpPk:count 1
attr interpolationmode none
attr source packetSentToUpper
attr title "packets passed to higher layer, count"
scalar Wireless_12_1m.hostA.lo[0].lo passedUpPk:sum(packetBytes) 32
attr interpolationmode none
attr source packetSentToUpper
attr title "packets passed to higher layer, sum(packetBytes)"
scalar Wireless_12_1m.hostA.wlan[0].mac.queue packetPopped:count 1
attr interpolationmode none
attr title "packet popped, count"
scalar Wireless_12_1m.hostA.wlan[0].mac.queue packetPopped:sum(packetBytes) 59
attr interpolationmode none
attr title "packet popped, sum(packetBytes)"
statistic Wireless_12_1m.hostA.wlan[0].mac.queue queueingTime:histogram
field count 1
field mean 0
field stddev -nan
field min 0
field max 0
field sum 0
field sqrsum 0
attr interpolationmode none
attr source queueingTime(packetPopped)
attr title "queueing times, histogram"
attr unit s
bin	-inf	0
bin	-0.5	0
bin	-0.48	0
bin	-0.46	0
bin	-0.44	0
bin	-0.42	0
bin	-0.4	0
bin	-0.38	0
bin	-0.36	0
bin	-0.34	0
bin	-0.32	0
bin	-0.3	0
bin	-0.28	0
bin	-0.26	0
bin	-0.24	0
bin	-0.22	0
bin	-0.2	0
bin	-0.18	0
bin	-0.16	0
bin	-0.14	0
bin	-0.12	0
bin	-0.1	0
bin	-0.08	0
bin	-0.06	0
bin	-0.04	0
bin	-0.02	0
bin	0	1
bin	0.02	0
bin	0.04	0
bin	0.06	0
bin	0.08	0
bin	0.1	0
bin	0.12	0
bin	0.14	0
bin	0.16	0
bin	0.18	0
bin	0.2	0
bin	0.22	0
bin	0.24	0
bin	0.26	0
bin	0.28	0
bin	0.3	0
bin	0.32	0
bin	0.34	0
bin	0.36	0
bin	0.38	0
bin	0.4	0
bin	0.42	0
bin	0.44	0
bin	0.46	0
bin	0.48	0
bin	0.5	0
scalar Wireless_12_1m.hostA.wlan[0].mac.queue queueLength:max 1
attr interpolationmode sample-hold
attr source "count(packetPushed) - count(packetPopped) - count(packetRemoved) - count(packetDropped)"
attr title "queue length, max"
scalar Wireless_12_1m.hostA.wlan[0].mac.queue queueLength:timeavg 0
attr interpolationmode sample-hold
attr source "count(packetPushed) - count(packetPopped) - count(packetRemoved) - count(packetDropped)"
attr title "queue length, timeavg"
scalar Wireless_12_1m.hostA.wlan[0].mac.queue packetPushed:count 1
attr interpolationmode none
attr title "packet pushed, count"
scalar Wireless_12_1m.hostA.wlan[0].mac.queue packetPushed:sum(packetBytes) 59
attr interpolationmode none
attr title "packet pushed, sum(packetBytes)"
scalar Wireless_12_1m.hostA.wlan[0].mac.queue packetDropQueueOverflow:count 0
attr interpolationmode none
attr source packetDropReasonIsQueueOverflow(packetDropped)
attr title "packet drops: queue overflow, count"
scalar Wireless_12_1m.hostA.wlan[0].mac.queue packetDropQueueOverflow:sum(packetBytes) 0
attr interpolationmode none
attr source packetDropReasonIsQueueOverflow(packetDropped)
attr title "packet drops: queue overflow, sum(packetBytes)"
scalar Wireless_12_1m.hostA.wlan[0].mac.queue packetRemoved:count 0
attr interpolationmode none
attr title "packets removed, count"
scalar Wireless_12_1m.hostA.wlan[0].mac.queue packetRemoved:sum(packetBytes) 0
attr interpolationmode none
attr title "packets removed, sum(packetBytes)"
scalar Wireless_12_1m.hostA.wlan[0].mac numRetry 0
scalar Wireless_12_1m.hostA.wlan[0].mac numSentWithoutRetry 0
scalar Wireless_12_1m.hostA.wlan[0].mac numGivenUp 0
scalar Wireless_12_1m.hostA.wlan[0].mac numCollision 2
scalar Wireless_12_1m.hostA.wlan[0].mac numSent 0
scalar Wireless_12_1m.hostA.wlan[0].mac numReceived 12
scalar Wireless_12_1m.hostA.wlan[0].mac numSentBroadcast 1
scalar Wireless_12_1m.hostA.wlan[0].mac numReceivedBroadcast 0
scalar Wireless_12_1m.hostA.wlan[0].mac packetDropIncorrectlyReceived:count 2
attr interpolationmode none
attr source packetDropReasonIsIncorrectlyReceived(packetDropped)
attr title "packet drop: incorrectly received, count"
scalar Wireless_12_1m.hostA.wlan[0].mac packetDropIncorrectlyReceived:sum(packetBytes) 118
attr interpolationmode none
attr source packetDropReasonIsIncorrectlyReceived(packetDropped)
attr title "packet drop: incorrectly received, sum(packetBytes)"
scalar Wireless_12_1m.hostA.wlan[0].mac packetDropNotAddressedToUs:count 0
attr interpolationmode none
attr source packetDropReasonIsNotAddressedToUs(packetDropped)
attr title "packet drop: not addressed to us, count"
scalar Wireless_12_1m.hostA.wlan[0].mac packetDropNotAddressedToUs:sum(packetBytes) 0
attr interpolationmode none
attr source packetDropReasonIsNotAddressedToUs(packetDropped)
attr title "packet drop: not addressed to us, sum(packetBytes)"
scalar Wireless_12_1m.hostA.wlan[0].mac packetDropQueueOverflow:count 0
attr interpolationmode none
attr source packetDropReasonIsQueueOverflow(packetDropped)
attr title "packet drop: queue overflow, count"
scalar Wireless_12_1m.hostA.wlan[0].mac packetDropQueueOverflow:sum(packetBytes) 0
attr interpolationmode none
attr source packetDropReasonIsQueueOverflow(packetDropped)
attr title "packet drop: queue overflow, sum(packetBytes)"
scalar Wireless_12_1m.hostA.wlan[0].mac packetDropRetryLimitReached:count 0
attr interpolationmode none
attr source packetDropReasonIsRetryLimitReached(packetDropped)
attr title "packet drop: retry limit reached, count"
scalar Wireless_12_1m.hostA.wlan[0].mac packetDropRetryLimitReached:sum(packetBytes) 0
attr interpolationmode none
attr source packetDropReasonIsRetryLimitReached(packetDropped)
attr title "packet drop: retry limit reached, sum(packetBytes)"
scalar Wireless_12_1m.hostA.wlan[0].mac linkBroken:count 0
attr interpolationmode none
attr source linkBroken
attr title "link break, count"
scalar Wireless_12_1m.hostA.wlan[0].radio radioMode:count 29
attr interpolationmode sample-hold
attr source radioModeChanged
attr title "Radio mode, count"
scalar Wireless_12_1m.hostA.wlan[0].radio receptionState:count 55
attr interpolationmode sample-hold
attr source receptionStateChanged
attr title "Radio reception state, count"
scalar Wireless_12_1m.hostA.wlan[0].radio transmissionState:count 52
attr interpolationmode sample-hold
attr source transmissionStateChanged
attr title "Radio transmission state, count"
statistic Wireless_12_1m.hostA.wlan[0].radio minSnir:histogram
field count 14
field mean 170743.15257055
field stddev 72336.49620811
field min 0.99999497994932
field max 199200.17800003
field sum 2390404.1359877
field sqrsum 476168530983.88
attr source minimumSnir(packetSentToUpper)
attr title "Min SNIR, histogram"
bin	-inf	0
bin	0	2
bin	5000	0
bin	10000	0
bin	15000	0
bin	20000	0
bin	25000	0
bin	30000	0
bin	35000	0
bin	40000	0
bin	45000	0
bin	50000	0
bin	55000	0
bin	60000	0
bin	65000	0
bin	70000	0
bin	75000	0
bin	80000	0
bin	85000	0
bin	90000	0
bin	95000	0
bin	100000	0
bin	105000	0
bin	110000	0
bin	115000	0
bin	120000	0
bin	125000	0
bin	130000	0
bin	135000	0
bin	140000	0
bin	145000	0
bin	150000	0
bin	155000	0
bin	160000	0
bin	165000	0
bin	170000	0
bin	175000	0
bin	180000	0
bin	185000	0
bin	190000	0
bin	195000	12
bin	200000	0
bin	205000	0
bin	210000	0
bin	215000	0
bin	220000	0
bin	225000	0
bin	230000	0
bin	235000	0
bin	240000	0
bin	245000	0
bin	250000	0
statistic Wireless_12_1m.hostA.wlan[0].radio packetErrorRate:histogram
field count 14
field mean 0.14285651501572
field stddev 0.36313492365623
field min 0
field max 0.99999560511002
field sum 1.99999121022
field sqrsum 1.9999824204787
attr source packetErrorRate(packetSentToUpper)
attr title "Packet error rate, histogram"
bin	-inf	0
bin	0	12
bin	0.02	0
bin	0.04	0
bin	0.06	0
bin	0.08	0
bin	0.1	0
bin	0.12	0
bin	0.14	0
bin	0.16	0
bin	0.18	0
bin	0.2	0
bin	0.22	0
bin	0.24	0
bin	0.26	0
bin	0.28	0
bin	0.3	0
bin	0.32	0
bin	0.34	0
bin	0.36	0
bin	0.38	0
bin	0.4	0
bin	0.42	0
bin	0.44	0
bin	0.46	0
bin	0.48	0
bin	0.5	0
bin	0.52	0
bin	0.54	0
bin	0.56	0
bin	0.58	0
bin	0.6	0
bin	0.62	0
bin	0.64	0
bin	0.66	0
bin	0.68	0
bin	0.7	0
bin	0.72	0
bin	0.74	0
bin	0.76	0
bin	0.78	0
bin	0.8	0
bin	0.82	0
bin	0.84	0
bin	0.86	0
bin	0.88	0
bin	0.9	0
bin	0.92	0
bin	0.94	0
bin	0.96	0
bin	0.98	2
bin	1	0
bin	1.02	0
bin	1.04	0
bin	1.06	0
bin	1.08	0
bin	1.1	0
bin	1.12	0
bin	1.14	0
bin	1.16	0
bin	1.18	0
bin	1.2	0
bin	1.22	0
bin	1.24	0
bin	1.26	0
statistic Wireless_12_1m.hostA.wlan[0].radio bitErrorRate:histogram
field count 14
field mean 0.0032500575695846
field stddev 0.0082615021602593
field min 0
field max 0.022750402987268
field sum 0.045500805974184
field sqrsum 0.0010351616721502
attr source bitErrorRate(packetSentToUpper)
attr title "Bit error rate, histogram"
bin	-inf	0
bin	0	12
bin	0.0005	0
bin	0.001	0
bin	0.0015	0
bin	0.002	0
bin	0.0025	0
bin	0.003	0
bin	0.0035	0
bin	0.004	0
bin	0.0045	0
bin	0.005	0
bin	0.0055	0
bin	0.006	0
bin	0.0065	0
bin	0.007	0
bin	0.0075	0
bin	0.008	0
bin	0.0085	0
bin	0.009	0
bin	0.0095	0
bin	0.01	0
bin	0.0105	0
bin	0.011	0
bin	0.0115	0
bin	0.012	0
bin	0.0125	0
bin	0.013	0
bin	0.0135	0
bin	0.014	0
bin	0.0145	0
bin	0.015	0
bin	0.0155	0
bin	0.016	0
bin	0.0165	0
bin	0.017	0
bin	0.0175	0
bin	0.018	0
bin	0.0185	0
bin	0.019	0
bin	0.0195	0
bin	0.02	0
bin	0.0205	0
bin	0.021	0
bin	0.0215	0
bin	0.022	0
bin	0.0225	2
bin	0.023	0
bin	0.0235	0
bin	0.024	0
bin	0.0245	0
bin	0.025	0
bin	0.0255	0
bin	0.026	0
bin	0.0265	0
bin	0.027	0
bin	0.0275	0
bin	0.028	0
bin	0.0285	0
statistic Wireless_12_1m.hostA.wlan[0].radio symbolErrorRate:histogram
field count 14
field mean 0.0032500575695846
field stddev 0.0082615021602593
field min 0
field max 0.022750402987268
field sum 0.045500805974184
field sqrsum 0.0010351616721502
attr source symbolErrorRate(packetSentToUpper)
attr title "Symbol error rate, histogram"
bin	-inf	0
bin	0	12
bin	0.0005	0
bin	0.001	0
bin	0.0015	0
bin	0.002	0
bin	0.0025	0
bin	0.003	0
bin	0.0035	0
bin	0.004	0
bin	0.0045	0
bin	0.005	0
bin	0.0055	0
bin	0.006	0
bin	0.0065	0
bin	0.007	0
bin	0.0075	0
bin	0.008	0
bin	0.0085	0
bin	0.009	0
bin	0.0095	0
bin	0.01	0
bin	0.0105	0
bin	0.011	0
bin	0.0115	0
bin	0.012	0
bin	0.0125	0
bin	0.013	0
bin	0.0135	0
bin	0.014	0
bin	0.0145	0
bin	0.015	0
bin	0.0155	0
bin	0.016	0
bin	0.0165	0
bin	0.017	0
bin	0.0175	0
bin	0.018	0
bin	0.0185	0
bin	0.019	0
bin	0.0195	0
bin	0.02	0
bin	0.0205	0
bin	0.021	0
bin	0.0215	0
bin	0.022	0
bin	0.0225	2
bin	0.023	0
bin	0.0235	0
bin	0.024	0
bin	0.0245	0
bin	0.025	0
bin	0.0255	0
bin	0.026	0
bin	0.0265	0
bin	0.027	0
bin	0.0275	0
bin	0.028	0
bin	0.0285	0
scalar Wireless_12_1m.hostA.ipv4.ip packetDropAddressResolutionFailed:count 0
attr interpolationmode none
attr source packetDropReasonIsAddressResolutionFailed(packetDropped)
attr title "packet drop: address resolution failed, count"
scalar Wireless_12_1m.hostA.ipv4.ip packetDropAddressResolutionFailed:sum(packetBytes) 0
attr interpolationmode none
attr source packetDropReasonIsAddressResolutionFailed(packetDropped)
attr title "packet drop: address resolution failed, sum(packetBytes)"
scalar Wireless_12_1m.hostA.ipv4.ip packetDropHopLimitReached:count 0
attr interpolationmode none
attr source packetDropReasonIsHopLimitReached(packetDropped)
attr title "packet drop: hop limit reached, count"
scalar Wireless_12_1m.hostA.ipv4.ip packetDropHopLimitReached:sum(packetBytes) 0
attr interpolationmode none
attr source packetDropReasonIsHopLimitReached(packetDropped)
attr title "packet drop: hop limit reached, sum(packetBytes)"
scalar Wireless_12_1m.hostA.ipv4.ip packetDropForwardingDisabled:count 0
attr interpolationmode none
attr source packetDropReasonIsForwardingDisabled(packetDropped)
attr title "packet drop: forwarding disabled, count"
scalar Wireless_12_1m.hostA.ipv4.ip packetDropForwardingDisabled:sum(packetBytes) 0
attr interpolationmode none
attr source packetDropReasonIsForwardingDisabled(packetDropped)
attr title "packet drop: forwarding disabled, sum(packetBytes)"
scalar Wireless_12_1m.hostA.ipv4.ip packetDropNoInterfaceFound:count 0
attr interpolationmode none
attr source packetDropReasonIsNoInterfaceFound(packetDropped)
attr title "packet drop: no interface found, count"
scalar Wireless_12_1m.hostA.ipv4.ip packetDropNoInterfaceFound:sum(packetBytes) 0
attr interpolationmode none
attr source packetDropReasonIsNoInterfaceFound(packetDropped)
attr title "packet drop: no interface found, sum(packetBytes)"
scalar Wireless_12_1m.hostA.ipv4.ip packetDropNoRouteFound:count 0
attr interpolationmode none
attr source packetDropReasonIsNoRouteFound(packetDropped)
attr title "packet drop: no route found, count"
scalar Wireless_12_1m.hostA.ipv4.ip packetDropNoRouteFound:sum(packetBytes) 0
attr interpolationmode none
attr source packetDropReasonIsNoRouteFound(packetDropped)
attr title "packet drop: no route found, sum(packetBytes)"
scalar Wireless_12_1m.hostA.ipv4.ip packetDropUndefined:count 0
attr interpolationmode none
attr source packetDropReasonIsUndefined(packetDropped)
attr title "packet drop: undefined, count"
scalar Wireless_12_1m.hostA.ipv4.ip packetDropUndefined:sum(packetBytes) 0
attr interpolationmode none
attr source packetDropReasonIsUndefined(packetDropped)
attr title "packet drop: undefined, sum(packetBytes)"
scalar Wireless_12_1m.hostA.udp packetReceived:count 13
attr interpolationmode none
attr source packetReceived
attr title "packets received, count"
scalar Wireless_12_1m.hostA.udp packetReceived:sum(packetBytes) 156
attr interpolationmode none
attr source packetReceived
attr title "packets received, sum(packetBytes)"
scalar Wireless_12_1m.hostA.udp packetSent:count 1
attr interpolationmode none
attr source packetSent
attr title "packets sent, count"
scalar Wireless_12_1m.hostA.udp packetSent:sum(packetBytes) 12
attr interpolationmode none
attr source packetSent
attr title "packets sent, sum(packetBytes)"
scalar Wireless_12_1m.hostA.udp passedUpPk:count 12
attr interpolationmode none
attr source packetSentToUpper
attr title "packets passed up, count"
scalar Wireless_12_1m.hostA.udp droppedPkWrongPort:count 1
attr interpolationmode none
attr source packetDropReasonIsNoPortFound(packetDropped)
attr title "packets dropped (wrong port), count"
scalar Wireless_12_1m.hostA.udp droppedPkBadChecksum:count 0
attr interpolationmode none
attr source packetDropReasonIsIncorrectlyReceived(packetDropped)
attr title "packets dropped (checksum error), count"
scalar Wireless_12_1m.hostB.lo[0].lo rcvdPkFromHl:count 0
attr interpolationmode none
attr source packetReceivedFromUpper
attr title "packets received from higher layer, count"
scalar Wireless_12_1m.hostB.lo[0].lo rcvdPkFromHl:sum(packetBytes) 0
attr interpolationmode none
attr source packetReceivedFromUpper
attr title "packets received from higher layer, sum(packetBytes)"
scalar Wireless_12_1m.hostB.lo[0].lo passedUpPk:count 0
attr interpolationmode none
attr source packetSentToUpper
attr title "packets passed to higher layer, count"
scalar Wireless_12_1m.hostB.lo[0].lo passedUpPk:sum(packetBytes) 0
attr interpolationmode none
attr source packetSentToUpper
attr title "packets passed to higher layer, sum(packetBytes)"
scalar Wireless_12_1m.hostB.wlan[0].mac.queue packetPopped:count 1
attr interpolationmode none
attr title "packet popped, count"
scalar Wireless_12_1m.hostB.wlan[0].mac.queue packetPopped:sum(packetBytes) 59
attr interpolationmode none
attr title "packet popped, sum(packetBytes)"
statistic Wireless_12_1m.hostB.wlan[0].mac.queue queueingTime:histogram
field count 1
field mean 0
field stddev -nan
field min 0
field max 0
field sum 0
field sqrsum 0
attr interpolationmode none
attr source queueingTime(packetPopped)
attr title "queueing times, histogram"
attr unit s
bin	-inf	0
bin	-0.5	0
bin	-0.48	0
bin	-0.46	0
bin	-0.44	0
bin	-0.42	0
bin	-0.4	0
bin	-0.38	0
bin	-0.36	0
bin	-0.34	0
bin	-0.32	0
bin	-0.3	0
bin	-0.28	0
bin	-0.26	0
bin	-0.24	0
bin	-0.22	0
bin	-0.2	0
bin	-0.18	0
bin	-0.16	0
bin	-0.14	0
bin	-0.12	0
bin	-0.1	0
bin	-0.08	0
bin	-0.06	0
bin	-0.04	0
bin	-0.02	0
bin	0	1
bin	0.02	0
bin	0.04	0
bin	0.06	0
bin	0.08	0
bin	0.1	0
bin	0.12	0
bin	0.14	0
bin	0.16	0
bin	0.18	0
bin	0.2	0
bin	0.22	0
bin	0.24	0
bin	0.26	0
bin	0.28	0
bin	0.3	0
bin	0.32	0
bin	0.34	0
bin	0.36	0
bin	0.38	0
bin	0.4	0
bin	0.42	0
bin	0.44	0
bin	0.46	0
bin	0.48	0
bin	0.5	0
scalar Wireless_12_1m.hostB.wlan[0].mac.queue queueLength:max 1
attr interpolationmode sample-hold
attr source "count(packetPushed) - count(packetPopped) - count(packetRemoved) - count(packetDropped)"
attr title "queue length, max"
scalar Wireless_12_1m.hostB.wlan[0].mac.queue queueLength:timeavg 0
attr interpolationmode sample-hold
attr source "count(packetPushed) - count(packetPopped) - count(packetRemoved) - count(packetDropped)"
attr title "queue length, timeavg"
scalar Wireless_12_1m.hostB.wlan[0].mac.queue packetPushed:count 1
attr interpolationmode none
attr title "packet pushed, count"
scalar Wireless_12_1m.hostB.wlan[0].mac.queue packetPushed:sum(packetBytes) 59
attr interpolationmode none
attr title "packet pushed, sum(packetBytes)"
scalar Wireless_12_1m.hostB.wlan[0].mac.queue packetDropQueueOverflow:count 0
attr interpolationmode none
attr source packetDropReasonIsQueueOverflow(packetDropped)
attr title "packet drops: queue overflow, count"
scalar Wireless_12_1m.hostB.wlan[0].mac.queue packetDropQueueOverflow:sum(packetBytes) 0
attr interpolationmode none
attr source packetDropReasonIsQueueOverflow(packetDropped)
attr title "packet drops: queue overflow, sum(packetBytes)"
scalar Wireless_12_1m.hostB.wlan[0].mac.queue packetRemoved:count 0
attr interpolationmode none
attr title "packets removed, count"
scalar Wireless_12_1m.hostB.wlan[0].mac.queue packetRemoved:sum(packetBytes) 0
attr interpolationmode none
attr title "packets removed, sum(packetBytes)"
scalar Wireless_12_1m.hostB.wlan[0].mac numRetry 0
scalar Wireless_12_1m.hostB.wlan[0].mac numSentWithoutRetry 1
scalar Wireless_12_1m.hostB.wlan[0].mac numGivenUp 0
scalar Wireless_12_1m.hostB.wlan[0].mac numCollision 1
scalar Wireless_12_1m.hostB.wlan[0].mac numSent 1
scalar Wireless_12_1m.hostB.wlan[0].mac numReceived 0
scalar Wireless_12_1m.hostB.wlan[0].mac numSentBroadcast 0
scalar Wireless_12_1m.hostB.wlan[0].mac numReceivedBroadcast 1
scalar Wireless_12_1m.hostB.wlan[0].mac packetDropIncorrectlyReceived:count 1
attr interpolationmode none
attr source packetDropReasonIsIncorrectlyReceived(packetDropped)
attr title "packet drop: incorrectly received, count"
scalar Wireless_12_1m.hostB.wlan[0].mac packetDropIncorrectlyReceived:sum(packetBytes) 59
attr interpolationmode none
attr source packetDropReasonIsIncorrectlyReceived(packetDropped)
attr title "packet drop: incorrectly received, sum(packetBytes)"
scalar Wireless_12_1m.hostB.wlan[0].mac packetDropNotAddressedToUs:count 12
attr interpolationmode none
attr source packetDropReasonIsNotAddressedToUs(packetDropped)
attr title "packet drop: not addressed to us, count"
scalar Wireless_12_1m.hostB.wlan[0].mac packetDropNotAddressedToUs:sum(packetBytes) 708
attr interpolationmode none
attr source packetDropReasonIsNotAddressedToUs(packetDropped)
attr title "packet drop: not addressed to us, sum(packetBytes)"
scalar Wireless_12_1m.hostB.wlan[0].mac packetDropQueueOverflow:count 0
attr interpolationmode none
attr source packetDropReasonIsQueueOverflow(packetDropped)
attr title "packet drop: queue overflow, count"
scalar Wireless_12_1m.hostB.wlan[0].mac packetDropQueueOverflow:sum(packetBytes) 0
attr interpolationmode none
attr source packetDropReasonIsQueueOverflow(packetDropped)
attr title "packet drop: queue overflow, sum(packetBytes)"
scalar Wireless_12_1m.hostB.wlan[0].mac packetDropRetryLimitReached:count 0
attr interpolationmode none
attr source packetDropReasonIsRetryLimitReached(packetDropped)
attr title "packet drop: retry limit reached, count"
scalar Wireless_12_1m.hostB.wlan[0].mac packetDropRetryLimitReached:sum(packetBytes) 0
attr interpolationmode none
attr source packetDropReasonIsRetryLimitReached(packetDropped)
attr title "packet drop: retry limit reached, sum(packetBytes)"
scalar Wireless_12_1m.hostB.wlan[0].mac linkBroken:count 0
attr interpolationmode none
attr source linkBroken
attr title "link break, count"
scalar Wireless_12_1m.hostB.wlan[0].radio radioMode:count 5
attr interpolationmode sample-hold
attr source radioModeChanged
attr title "Radio mode, count"
scalar Wireless_12_1m.hostB.wlan[0].radio receptionState:count 57
attr interpolationmode sample-hold
attr source receptionStateChanged
attr title "Radio reception state, count"
scalar Wireless_12_1m.hostB.wlan[0].radio transmissionState:count 4
attr interpolationmode sample-hold
attr source transmissionStateChanged
attr title "Radio transmission state, count"
statistic Wireless_12_1m.hostB.wlan[0].radio minSnir:histogram
field count 26
field mean 441998.59727544
field stddev 1089443.6464019
field min 1.2499843124599
field max 4929696.1888752
field sum 11491963.529161
field sqrsum 34751618226965
attr source minimumSnir(packetSentToUpper)
attr title "Min SNIR, histogram"
bin	-inf	0
bin	0	9
bin	100000	15
bin	200000	0
bin	300000	0
bin	400000	0
bin	500000	0
bin	600000	0
bin	700000	0
bin	800000	0
bin	900000	0
bin	1000000	0
bin	1100000	0
bin	1200000	0
bin	1300000	0
bin	1400000	0
bin	1500000	0
bin	1600000	0
bin	1700000	0
bin	1800000	0
bin	1900000	0
bin	2000000	0
bin	2100000	0
bin	2200000	0
bin	2300000	0
bin	2400000	0
bin	2500000	0
bin	2600000	0
bin	2700000	0
bin	2800000	0
bin	2900000	0
bin	3000000	0
bin	3100000	1
bin	3200000	0
bin	3300000	0
bin	3400000	0
bin	3500000	0
bin	3600000	0
bin	3700000	0
bin	3800000	0
bin	3900000	0
bin	4000000	0
bin	4100000	0
bin	4200000	0
bin	4300000	0
bin	4400000	0
bin	4500000	0
bin	4600000	0
bin	4700000	0
bin	4800000	0
bin	4900000	1
bin	5000000	0
bin	5100000	0
bin	5200000	0
bin	5300000	0
bin	5400000	0
bin	5500000	0
bin	5600000	0
bin	5700000	0
bin	5800000	0
bin	5900000	0
bin	6000000	0
bin	6100000	0
bin	6200000	0
statistic Wireless_12_1m.hostB.wlan[0].radio packetErrorRate:histogram
field count 26
field mean 0.03842024643723
field stddev 0.19590558630048
field min 0
field max 0.99892640736798
field sum 0.99892640736798
field sqrsum 0.9978539673371
attr source packetErrorRate(packetSentToUpper)
attr title "Packet error rate, histogram"
bin	-inf	0
bin	0	25
bin	0.02	0
bin	0.04	0
bin	0.06	0
bin	0.08	0
bin	0.1	0
bin	0.12	0
bin	0.14	0
bin	0.16	0
bin	0.18	0
bin	0.2	0
bin	0.22	0
bin	0.24	0
bin	0.26	0
bin	0.28	0
bin	0.3	0
bin	0.32	0
bin	0.34	0
bin	0.36	0
bin	0.38	0
bin	0.4	0
bin	0.42	0
bin	0.44	0
bin	0.46	0
bin	0.48	0
bin	0.5	0
bin	0.52	0
bin	0.54	0
bin	0.56	0
bin	0.58	0
bin	0.6	0
bin	0.62	0
bin	0.64	0
bin	0.66	0
bin	0.68	0
bin	0.7	0
bin	0.72	0
bin	0.74	0
bin	0.76	0
bin	0.78	0
bin	0.8	0
bin	0.82	0
bin	0.84	0
bin	0.86	0
bin	0.88	0
bin	0.9	0
bin	0.92	0
bin	0.94	0
bin	0.96	0
bin	0.98	1
bin	1	0
bin	1.02	0
bin	1.04	0
bin	1.06	0
bin	1.08	0
bin	1.1	0
bin	1.12	0
bin	1.14	0
bin	1.16	0
bin	1.18	0
bin	1.2	0
bin	1.22	0
bin	1.24	0
bin	1.26	0
statistic Wireless_12_1m.hostB.wlan[0].radio bitErrorRate:histogram
field count 26
field mean 0.00048746610903413
field stddev 0.0024855992021802
field min 0
field max 0.012674118834887
field sum 0.012674118834887
field sqrsum 0.00016063328824085
attr source bitErrorRate(packetSentToUpper)
attr title "Bit error rate, histogram"
bin	-inf	0
bin	0	25
bin	0.0002	0
bin	0.0004	0
bin	0.0006	0
bin	0.0008	0
bin	0.001	0
bin	0.0012	0
bin	0.0014	0
bin	0.0016	0
bin	0.0018	0
bin	0.002	0
bin	0.0022	0
bin	0.0024	0
bin	0.0026	0
bin	0.0028	0
bin	0.003	0
bin	0.0032	0
bin	0.0034	0
bin	0.0036	0
bin	0.0038	0
bin	0.004	0
bin	0.0042	0
bin	0.0044	0
bin	0.0046	0
bin	0.0048	0
bin	0.005	0
bin	0.0052	0
bin	0.0054	0
bin	0.0056	0
bin	0.0058	0
bin	0.006	0
bin	0.0062	0
bin	0.0064	0
bin	0.0066	0
bin	0.0068	0
bin	0.007	0
bin	0.0072	0
bin	0.0074	0
bin	0.0076	0
bin	0.0078	0
bin	0.008	0
bin	0.0082	0
bin	0.0084	0
bin	0.0086	0
bin	0.0088	0
bin	0.009	0
bin	0.0092	0
bin	0.0094	0
bin	0.0096	0
bin	0.0098	0
bin	0.01	0
bin	0.0102	0
bin	0.0104	0
bin	0.0106	0
bin	0.0108	0
bin	0.011	0
bin	0.0112	0
bin	0.0114	0
bin	0.0116	0
bin	0.0118	0
bin	0.012	0
bin	0.0122	0
bin	0.0124	0
bin	0.0126	1
bin	0.0128	0
bin	0.013	0
bin	0.0132	0
bin	0.0134	0
bin	0.0136	0
bin	0.0138	0
bin	0.014	0
bin	0.0142	0
bin	0.0144	0
bin	0.0146	0
bin	0.0148	0
bin	0.015	0
bin	0.0152	0
bin	0.0154	0
bin	0.0156	0
bin	0.0158	0
bin	0.016	0
statistic Wireless_12_1m.hostB.wlan[0].radio symbolErrorRate:histogram
field count 26
field mean 0.00048746610903413
field stddev 0.0024855992021802
field min 0
field max 0.012674118834887
field sum 0.012674118834887
field sqrsum 0.00016063328824085
attr source symbolErrorRate(packetSentToUpper)
attr title "Symbol error rate, histogram"
bin	-inf	0
bin	0	25
bin	0.0002	0
bin	0.0004	0
bin	0.0006	0
bin	0.0008	0
bin	0.001	0
bin	0.0012	0
bin	0.0014	0
bin	0.0016	0
bin	0.0018	0
bin	0.002	0
bin	0.0022	0
bin	0.0024	0
bin	0.0026	0
bin	0.0028	0
bin	0.003	0
bin	0.0032	0
bin	0.0034	0
bin	0.0036	0
bin	0.0038	0
bin	0.004	0
bin	0.0042	0
bin	0.0044	0
bin	0.0046	0
bin	0.0048	0
bin	0.005	0
bin	0.0052	0
bin	0.0054	0
bin	0.0056	0
bin	0.0058	0
bin	0.006	0
bin	0.0062	0
bin	0.0064	0
bin	0.0066	0
bin	0.0068	0
bin	0.007	0
bin	0.0072	0
bin	0.0074	0
bin	0.0076	0
bin	0.0078	0
bin	0.008	0
bin	0.0082	0
bin	0.0084	0
bin	0.0086	0
bin	0.0088	0
bin	0.009	0
bin	0.0092	0
bin	0.0094	0
bin	0.0096	0
bin	0.0098	0
bin	0.01	0
bin	0.0102	0
bin	0.0104	0
bin	0.0106	0
bin	0.0108	0
bin	0.011	0
bin	0.0112	0
bin	0.0114	0
bin	0.0116	0
bin	0.0118	0
bin	0.012	0
bin	0.0122	0
bin	0.0124	0
bin	0.0126	1
bin	0.0128	0
bin	0.013	0
bin	0.0132	0
bin	0.0134	0
bin	0.0136	0
bin	0.0138	0
bin	0.014	0
bin	0.0142	0
bin	0.0144	0
bin	0.0146	0
bin	0.0148	0
bin	0.015	0
bin	0.0152	0
bin	0.0154	0
bin	0.0156	0
bin	0.0158	0
bin	0.016	0
scalar Wireless_12_1m.hostB.ipv4.ip packetDropAddressResolutionFailed:count 0
attr interpolationmode none
attr source packetDropReasonIsAddressResolutionFailed(packetDropped)
attr title "packet drop: address resolution failed, count"
scalar Wireless_12_1m.hostB.ipv4.ip packetDropAddressResolutionFailed:sum(packetBytes) 0
attr interpolationmode none
attr source packetDropReasonIsAddressResolutionFailed(packetDropped)
attr title "packet drop: address resolution failed, sum(packetBytes)"
scalar Wireless_12_1m.hostB.ipv4.ip packetDropHopLimitReached:count 0
attr interpolationmode none
attr source packetDropReasonIsHopLimitReached(packetDropped)
attr title "packet drop: hop limit reached, count"
scalar Wireless_12_1m.hostB.ipv4.ip packetDropHopLimitReached:sum(packetBytes) 0
attr interpolationmode none
attr source packetDropReasonIsHopLimitReached(packetDropped)
attr title "packet drop: hop limit reached, sum(packetBytes)"
scalar Wireless_12_1m.hostB.ipv4.ip packetDropForwardingDisabled:count 0
attr interpolationmode none
attr source packetDropReasonIsForwardingDisabled(packetDropped)
attr title "packet drop: forwarding disabled, count"
scalar Wireless_12_1m.hostB.ipv4.ip packetDropForwardingDisabled:sum(packetBytes) 0
attr interpolationmode none
attr source packetDropReasonIsForwardingDisabled(packetDropped)
attr title "packet drop: forwarding disabled, sum(packetBytes)"
scalar Wireless_12_1m.hostB.ipv4.ip packetDropNoInterfaceFound:count 0
attr interpolationmode none
attr source packetDropReasonIsNoInterfaceFound(packetDropped)
attr title "packet drop: no interface found, count"
scalar Wireless_12_1m.hostB.ipv4.ip packetDropNoInterfaceFound:sum(packetBytes) 0
attr interpolationmode none
attr source packetDropReasonIsNoInterfaceFound(packetDropped)
attr title "packet drop: no interface found, sum(packetBytes)"
scalar Wireless_12_1m.hostB.ipv4.ip packetDropNoRouteFound:count 0
attr interpolationmode none
attr source packetDropReasonIsNoRouteFound(packetDropped)
attr title "packet drop: no route found, count"
scalar Wireless_12_1m.hostB.ipv4.ip packetDropNoRouteFound:sum(packetBytes) 0
attr interpolationmode none
attr source packetDropReasonIsNoRouteFound(packetDropped)
attr title "packet drop: no route found, sum(packetBytes)"
scalar Wireless_12_1m.hostB.ipv4.ip packetDropUndefined:count 0
attr interpolationmode none
attr source packetDropReasonIsUndefined(packetDropped)
attr title "packet drop: undefined, count"
scalar Wireless_12_1m.hostB.ipv4.ip packetDropUndefined:sum(packetBytes) 0
attr interpolationmode none
attr source packetDropReasonIsUndefined(packetDropped)
attr title "packet drop: undefined, sum(packetBytes)"
scalar Wireless_12_1m.hostB.udp packetReceived:count 1
attr interpolationmode none
attr source packetReceived
attr title "packets received, count"
scalar Wireless_12_1m.hostB.udp packetReceived:sum(packetBytes) 12
attr interpolationmode none
attr source packetReceived
attr title "packets received, sum(packetBytes)"
scalar Wireless_12_1m.hostB.udp packetSent:count 1
attr interpolationmode none
attr source packetSent
attr title "packets sent, count"
scalar Wireless_12_1m.hostB.udp packetSent:sum(packetBytes) 12
attr interpolationmode none
attr source packetSent
attr title "packets sent, sum(packetBytes)"
scalar Wireless_12_1m.hostB.udp passedUpPk:count 1
attr interpolationmode none
attr source packetSentToUpper
attr title "packets passed up, count"
scalar Wireless_12_1m.hostB.udp droppedPkWrongPort:count 0
attr interpolationmode none
attr source packetDropReasonIsNoPortFound(packetDropped)
attr title "packets dropped (wrong port), count"
scalar Wireless_12_1m.hostB.udp droppedPkBadChecksum:count 0
attr interpolationmode none
attr source packetDropReasonIsIncorrectlyReceived(packetDropped)
attr title "packets dropped (checksum error), count"
scalar Wireless_12_1m.hostC.lo[0].lo rcvdPkFromHl:count 0
attr interpolationmode none
attr source packetReceivedFromUpper
attr title "packets received from higher layer, count"
scalar Wireless_12_1m.hostC.lo[0].lo rcvdPkFromHl:sum(packetBytes) 0
attr interpolationmode none
attr source packetReceivedFromUpper
attr title "packets received from higher layer, sum(packetBytes)"
scalar Wireless_12_1m.hostC.lo[0].lo passedUpPk:count 0
attr interpolationmode none
attr source packetSentToUpper
attr title "packets passed to higher layer, count"
scalar Wireless_12_1m.hostC.lo[0].lo passedUpPk:sum(packetBytes) 0
attr interpolationmode none
attr source packetSentToUpper
attr title "packets passed to higher layer, sum(packetBytes)"
scalar Wireless_12_1m.hostC.wlan[0].mac.queue packetPopped:count 1
attr interpolationmode none
attr title "packet popped, count"
scalar Wireless_12_1m.hostC.wlan[0].mac.queue packetPopped:sum(packetBytes) 59
attr interpolationmode none
attr title "packet popped, sum(packetBytes)"
statistic Wireless_12_1m.hostC.wlan[0].mac.queue queueingTime:histogram
field count 1
field mean 0
field stddev -nan
field min 0
field max 0
field sum 0
field sqrsum 0
attr interpolationmode none
attr source queueingTime(packetPopped)
attr title "queueing times, histogram"
attr unit s
bin	-inf	0
bin	-0.5	0
bin	-0.48	0
bin	-0.46	0
bin	-0.44	0
bin	-0.42	0
bin	-0.4	0
bin	-0.38	0
bin	-0.36	0
bin	-0.34	0
bin	-0.32	0
bin	-0.3	0
bin	-0.28	0
bin	-0.26	0
bin	-0.24	0
bin	-0.22	0
bin	-0.2	0
bin	-0.18	0
bin	-0.16	0
bin	-0.14	0
bin	-0.12	0
bin	-0.1	0
bin	-0.08	0
bin	-0.06	0
bin	-0.04	0
bin	-0.02	0
bin	0	1
bin	0.02	0
bin	0.04	0
bin	0.06	0
bin	0.08	0
bin	0.1	0
bin	0.12	0
bin	0.14	0
bin	0.16	0
bin	0.18	0
bin	0.2	0
bin	0.22	0
bin	0.24	0
bin	0.26	0
bin	0.28	0
bin	0.3	0
bin	0.32	0
bin	0.34	0
bin	0.36	0
bin	0.38	0
bin	0.4	0
bin	0.42	0
bin	0.44	0
bin	0.46	0
bin	0.48	0
bin	0.5	0
scalar Wireless_12_1m.hostC.wlan[0].mac.queue queueLength:max 1
attr interpolationmode sample-hold
attr source "count(packetPushed) - count(packetPopped) - count(packetRemoved) - count(packetDropped)"
attr title "queue length, max"
scalar Wireless_12_1m.hostC.wlan[0].mac.queue queueLength:timeavg 0
attr interpolationmode sample-hold
attr source "count(packetPushed) - count(packetPopped) - count(packetRemoved) - count(packetDropped)"
attr title "queue length, timeavg"
scalar Wireless_12_1m.hostC.wlan[0].mac.queue packetPushed:count 1
attr interpolationmode none
attr title "packet pushed, count"
scalar Wireless_12_1m.hostC.wlan[0].mac.queue packetPushed:sum(packetBytes) 59
attr interpolationmode none
attr title "packet pushed, sum(packetBytes)"
scalar Wireless_12_1m.hostC.wlan[0].mac.queue packetDropQueueOverflow:count 0
attr interpolationmode none
attr source packetDropReasonIsQueueOverflow(packetDropped)
attr title "packet drops: queue overflow, count"
scalar Wireless_12_1m.hostC.wlan[0].mac.queue packetDropQueueOverflow:sum(packetBytes) 0
attr interpolationmode none
attr source packetDropReasonIsQueueOverflow(packetDropped)
attr title "packet drops: queue overflow, sum(packetBytes)"
scalar Wireless_12_1m.hostC.wlan[0].mac.queue packetRemoved:count 0
attr interpolationmode none
attr title "packets removed, count"
scalar Wireless_12_1m.hostC.wlan[0].mac.queue packetRemoved:sum(packetBytes) 0
attr interpolationmode none
attr title "packets removed, sum(packetBytes)"
scalar Wireless_12_1m.hostC.wlan[0].mac numRetry 0
scalar Wireless_12_1m.hostC.wlan[0].mac numSentWithoutRetry 1
scalar Wireless_12_1m.hostC.wlan[0].mac numGivenUp 0
scalar Wireless_12_1m.hostC.wlan[0].mac numCollision 1
scalar Wireless_12_1m.hostC.wlan[0].mac numSent 1
scalar Wireless_12_1m.hostC.wlan[0].mac numReceived 0
scalar Wireless_12_1m.hostC.wlan[0].mac numSentBroadcast 0
scalar Wireless_12_1m.hostC.wlan[0].mac numReceivedBroadcast 1
scalar Wireless_12_1m.hostC.wlan[0].mac packetDropIncorrectlyReceived:count 1
attr interpolationmode none
attr source packetDropReasonIsIncorrectlyReceived(packetDropped)
attr title "packet drop: incorrectly received, count"
scalar Wireless_12_1m.hostC.wlan[0].mac packetDropIncorrectlyReceived:sum(packetBytes) 59
attr interpolationmode none
attr source packetDropReasonIsIncorrectlyReceived(packetDropped)
attr title "packet drop: incorrectly received, sum(packetBytes)"
scalar Wireless_12_1m.hostC.wlan[0].mac packetDropNotAddressedToUs:count 12
attr interpolationmode none
attr source packetDropReasonIsNotAddressedToUs(packetDropped)
attr title "packet drop: not addressed to us, count"
scalar Wireless_12_1m.hostC.wlan[0].mac packetDropNotAddressedToUs:sum(packetBytes) 708
attr interpolationmode none
attr source packetDropReasonIsNotAddressedToUs(packetDropped)
attr title "packet drop: not addressed to us, sum(packetBytes)"
scalar Wireless_12_1m.hostC.wlan[0].mac packetDropQueueOverflow:count 0
attr interpolationmode none
attr source packetDropReasonIsQueueOverflow(packetDropped)
attr title "packet drop: queue overflow, count"
scalar Wireless_12_1m.hostC.wlan[0].mac packetDropQueueOverflow:sum(packetBytes) 0
attr interpolationmode none
attr source packetDropReasonIsQueueOverflow(packetDropped)
attr title "packet drop: queue overflow, sum(packetBytes)"
scalar Wireless_12_1m.hostC.wlan[0].mac packetDropRetryLimitReached:count 0
attr interpolationmode none
attr source packetDropReasonIsRetryLimitReached(packetDropped)
attr title "packet drop: retry limit reached, count"
scalar Wireless_12_1m.hostC.wlan[0].mac packetDropRetryLimitReached:sum(packetBytes) 0
attr interpolationmode none
attr source packetDropReasonIsRetryLimitReached(packetDropped)
attr title "packet drop: retry limit reached, sum(packetBytes)"
scalar Wireless_12_1m.hostC.wlan[0].mac linkBroken:count 0
attr interpolationmode none
attr source linkBroken
attr title "link break, count"
scalar Wireless_12_1m.hostC.wlan[0].radio radioMode:count 5
attr interpolationmode sample-hold
attr source radioModeChanged
attr title "Radio mode, count"
scalar Wireless_12_1m.hostC.wlan[0].radio receptionState:count 57
attr interpolationmode sample-hold
attr source receptionStateChanged
attr title "Radio reception state, count"
scalar Wireless_12_1m.hostC.wlan[0].radio transmissionState:count 4
attr interpolationmode sample-hold
attr source transmissionStateChanged
attr title "Radio transmission state, count"
statistic Wireless_12_1m.hostC.wlan[0].radio minSnir:histogram
field count 26
field mean 278251.89132982
field stddev 598923.72163471
field min 1.0161128264869
field max 3136599.3679114
field sum 7234549.1745753
field sqrsum 10980767599163
attr source minimumSnir(packetSentToUpper)
attr title "Min SNIR, histogram"
bin	-inf	0
bin	0	3
bin	50000	6
bin	100000	2
bin	150000	13
bin	200000	0
bin	250000	0
bin	300000	0
bin	350000	0
bin	400000	0
bin	450000	0
bin	500000	0
bin	550000	0
bin	600000	0
bin	650000	0
bin	700000	1
bin	750000	0
bin	800000	0
bin	850000	0
bin	900000	0
bin	950000	0
bin	1000000	0
bin	1050000	0
bin	1100000	0
bin	1150000	0
bin	1200000	0
bin	1250000	0
bin	1300000	0
bin	1350000	0
bin	1400000	0
bin	1450000	0
bin	1500000	0
bin	1550000	0
bin	1600000	0
bin	1650000	0
bin	1700000	0
bin	1750000	0
bin	1800000	0
bin	1850000	0
bin	1900000	0
bin	1950000	0
bin	2000000	0
bin	2050000	0
bin	2100000	0
bin	2150000	0
bin	2200000	0
bin	2250000	0
bin	2300000	0
bin	2350000	0
bin	2400000	0
bin	2450000	0
bin	2500000	0
bin	2550000	0
bin	2600000	0
bin	2650000	0
bin	2700000	0
bin	2750000	0
bin	2800000	0
bin	2850000	0
bin	2900000	0
bin	2950000	0
bin	3000000	0
bin	3050000	0
bin	3100000	1
bin	3150000	0
bin	3200000	0
bin	3250000	0
bin	3300000	0
bin	3350000	0
bin	3400000	0
bin	3450000	0
bin	3500000	0
bin	3550000	0
bin	3600000	0
bin	3650000	0
bin	3700000	0
bin	3750000	0
bin	3800000	0
bin	3850000	0
bin	3900000	0
bin	3950000	0
statistic Wireless_12_1m.hostC.wlan[0].radio packetErrorRate:histogram
field count 26
field mean 0.038461290875384
field stddev 0.19611475483579
field min 0
field max 0.9999929849244
field sum 0.99999356275998
field sqrsum 0.99998596989835
attr source packetErrorRate(packetSentToUpper)
attr title "Packet error rate, histogram"
bin	-inf	0
bin	0	25
bin	0.02	0
bin	0.04	0
bin	0.06	0
bin	0.08	0
bin	0.1	0
bin	0.12	0
bin	0.14	0
bin	0.16	0
bin	0.18	0
bin	0.2	0
bin	0.22	0
bin	0.24	0
bin	0.26	0
bin	0.28	0
bin	0.3	0
bin	0.32	0
bin	0.34	0
bin	0.36	0
bin	0.38	0
bin	0.4	0
bin	0.42	0
bin	0.44	0
bin	0.46	0
bin	0.48	0
bin	0.5	0
bin	0.52	0
bin	0.54	0
bin	0.56	0
bin	0.58	0
bin	0.6	0
bin	0.62	0
bin	0.64	0
bin	0.66	0
bin	0.68	0
bin	0.7	0
bin	0.72	0
bin	0.74	0
bin	0.76	0
bin	0.78	0
bin	0.8	0
bin	0.82	0
bin	0.84	0
bin	0.86	0
bin	0.88	0
bin	0.9	0
bin	0.92	0
bin	0.94	0
bin	0.96	0
bin	0.98	1
bin	1	0
bin	1.02	0
bin	1.04	0
bin	1.06	0
bin	1.08	0
bin	1.1	0
bin	1.12	0
bin	1.14	0
bin	1.16	0
bin	1.18	0
bin	1.2	0
bin	1.22	0
bin	1.24	0
bin	1.26	0
statistic Wireless_12_1m.hostC.wlan[0].radio bitErrorRate:histogram
field count 26
field mean 0.00084220986723192
field stddev 0.0042944443276757
field min 0
field max 0.021897455469978
field sum 0.02189745654803
field sqrsum 0.00047949855605968
attr source bitErrorRate(packetSentToUpper)
attr title "Bit error rate, histogram"
bin	-inf	0
bin	0	25
bin	0.0005	0
bin	0.001	0
bin	0.0015	0
bin	0.002	0
bin	0.0025	0
bin	0.003	0
bin	0.0035	0
bin	0.004	0
bin	0.0045	0
bin	0.005	0
bin	0.0055	0
bin	0.006	0
bin	0.0065	0
bin	0.007	0
bin	0.0075	0
bin	0.008	0
bin	0.0085	0
bin	0.009	0
bin	0.0095	0
bin	0.01	0
bin	0.0105	0
bin	0.011	0
bin	0.0115	0
bin	0.012	0
bin	0.0125	0
bin	0.013	0
bin	0.0135	0
bin	0.014	0
bin	0.0145	0
bin	0.015	0
bin	0.0155	0
bin	0.016	0
bin	0.0165	0
bin	0.017	0
bin	0.0175	0
bin	0.018	0
bin	0.0185	0
bin	0.019	0
bin	0.0195	0
bin	0.02	0
bin	0.0205	0
bin	0.021	0
bin	0.0215	1
bin	0.022	0
bin	0.0225	0
bin	0.023	0
bin	0.0235	0
bin	0.024	0
bin	0.0245	0
bin	0.025	0
bin	0.0255	0
bin	0.026	0
bin	0.0265	0
bin	0.027	0
bin	0.0275	0
statistic Wireless_12_1m.hostC.wlan[0].radio symbolErrorRate:histogram
field count 26
field mean 0.00084220986723192
field stddev 0.0042944443276757
field min 0
field max 0.021897455469978
field sum 0.02189745654803
field sqrsum 0.00047949855605968
attr source symbolErrorRate(packetSentToUpper)
attr title "Symbol error rate, histogram"
bin	-inf	0
bin	0	25
bin	0.0005	0
bin	0.001	0
bin	0.0015	0
bin	0.002	0
bin	0.0025	0
bin	0.003	0
bin	0.0035	0
bin	0.004	0
bin	0.0045	0
bin	0.005	0
bin	0.0055	0
bin	0.006	0
bin	0.0065	0
bin	0.007	0
bin	0.0075	0
bin	0.008	0
bin	0.0085	0
bin	0.009	0
bin	0.0095	0
bin	0.01	0
bin	0.0105	0
bin	0.011	0
bin	0.0115	0
bin	0.012	0
bin	0.0125	0
bin	0.013	0
bin	0.0135	0
bin	0.014	0
bin	0.0145	0
bin	0.015	0
bin	0.0155	0
bin	0.016	0
bin	0.0165	0
bin	0.017	0
bin	0.0175	0
bin	0.018	0
bin	0.0185	0
bin	0.019	0
bin	0.0195	0
bin	0.02	0
bin	0.0205	0
bin	0.021	0
bin	0.0215	1
bin	0.022	0
bin	0.0225	0
bin	0.023	0
bin	0.0235	0
bin	0.024	0
bin	0.0245	0
bin	0.025	0
bin	0.0255	0
bin	0.026	0
bin	0.0265	0
bin	0.027	0
bin	0.0275	0
scalar Wireless_12_1m.hostC.ipv4.ip packetDropAddressResolutionFailed:count 0
attr interpolationmode none
attr source packetDropReasonIsAddressResolutionFailed(packetDropped)
attr title "packet drop: address resolution failed, count"
scalar Wireless_12_1m.hostC.ipv4.ip packetDropAddressResolutionFailed:sum(packetBytes) 0
attr interpolationmode none
attr source packetDropReasonIsAddressResolutionFailed(packetDropped)
attr title "packet drop: address resolution failed, sum(packetBytes)"
scalar Wireless_12_1m.hostC.ipv4.ip packetDropHopLimitReached:count 0
attr interpolationmode none
attr source packetDropReasonIsHopLimitReached(packetDropped)
attr title "packet drop: hop limit reached, count"
scalar Wireless_12_1m.hostC.ipv4.ip packetDropHopLimitReached:sum(packetBytes) 0
attr interpolationmode none
attr source packetDropReasonIsHopLimitReached(packetDropped)
attr title "packet drop: hop limit reached, sum(packetBytes)"
scalar Wireless_12_1m.hostC.ipv4.ip packetDropForwardingDisabled:count 0
attr interpolationmode none
attr source packetDropReasonIsForwardingDisabled(packetDropped)
attr title "packet drop: forwarding disabled, count"
scalar Wireless_12_1m.hostC.ipv4.ip packetDropForwardingDisabled:sum(packetBytes) 0
attr interpolationmode none
attr source packetDropReasonIsForwardingDisabled(packetDropped)
attr title "packet drop: forwarding disabled, sum(packetBytes)"
scalar Wireless_12_1m.hostC.ipv4.ip packetDropNoInterfaceFound:count 0
attr interpolationmode none
attr source packetDropReasonIsNoInterfaceFound(packetDropped)
attr title "packet drop: no interface found, count"
scalar Wireless_12_1m.hostC.ipv4.ip packetDropNoInterfaceFound:sum(packetBytes) 0
attr interpolationmode none
attr source packetDropReasonIsNoInterfaceFound(packetDropped)
attr title "packet drop: no interface found, sum(packetBytes)"
scalar Wireless_12_1m.hostC.ipv4.ip packetDropNoRouteFound:count 0
attr interpolationmode none
attr source packetDropReasonIsNoRouteFound(packetDropped)
attr title "packet drop: no route found, count"
scalar Wireless_12_1m.hostC.ipv4.ip packetDropNoRouteFound:sum(packetBytes) 0
attr interpolationmode none
attr source packetDropReasonIsNoRouteFound(packetDropped)
attr title "packet drop: no route found, sum(packetBytes)"
scalar Wireless_12_1m.hostC.ipv4.ip packetDropUndefined:count 0
attr interpolationmode none
attr source packetDropReasonIsUndefined(packetDropped)
attr title "packet drop: undefined, count"
scalar Wireless_12_1m.hostC.ipv4.ip packetDropUndefined:sum(packetBytes) 0
attr interpolationmode none
attr source packetDropReasonIsUndefined(packetDropped)
attr title "packet drop: undefined, sum(packetBytes)"
scalar Wireless_12_1m.hostC.udp packetReceived:count 1
attr interpolationmode none
attr source packetReceived
attr title "packets received, count"
scalar Wireless_12_1m.hostC.udp packetReceived:sum(packetBytes) 12
attr interpolationmode none
attr source packetReceived
attr title "packets received, sum(packetBytes)"
scalar Wireless_12_1m.hostC.udp packetSent:count 1
attr interpolationmode none
attr source packetSent
attr title "packets sent, count"
scalar Wireless_12_1m.hostC.udp packetSent:sum(packetBytes) 12
attr interpolationmode none
attr source packetSent
attr title "packets sent, sum(packetBytes)"
scalar Wireless_12_1m.hostC.udp passedUpPk:count 1
attr interpolationmode none
attr source packetSentToUpper
attr title "packets passed up, count"
scalar Wireless_12_1m.hostC.udp droppedPkWrongPort:count 0
attr interpolationmode none
attr source packetDropReasonIsNoPortFound(packetDropped)
attr title "packets dropped (wrong port), count"
scalar Wireless_12_1m.hostC.udp droppedPkBadChecksum:count 0
attr interpolationmode none
attr source packetDropReasonIsIncorrectlyReceived(packetDropped)
attr title "packets dropped (checksum error), count"
scalar Wireless_12_1m.hostD.lo[0].lo rcvdPkFromHl:count 0
attr interpolationmode none
attr source packetReceivedFromUpper
attr title "packets received from higher layer, count"
scalar Wireless_12_1m.hostD.lo[0].lo rcvdPkFromHl:sum(packetBytes) 0
attr interpolationmode none
attr source packetReceivedFromUpper
attr title "packets received from higher layer, sum(packetBytes)"
scalar Wireless_12_1m.hostD.lo[0].lo passedUpPk:count 0
attr interpolationmode none
attr source packetSentToUpper
attr title "packets passed to higher layer, count"
scalar Wireless_12_1m.hostD.lo[0].lo passedUpPk:sum(packetBytes) 0
attr interpolationmode none
attr source packetSentToUpper
attr title "packets passed to higher layer, sum(packetBytes)"
scalar Wireless_12_1m.hostD.wlan[0].mac.queue packetPopped:count 1
attr interpolationmode none
attr title "packet popped, count"
scalar Wireless_12_1m.hostD.wlan[0].mac.queue packetPopped:sum(packetBytes) 59
attr interpolationmode none
attr title "packet popped, sum(packetBytes)"
statistic Wireless_12_1m.hostD.wlan[0].mac.queue queueingTime:histogram
field count 1
field mean 0
field stddev -nan
field min 0
field max 0
field sum 0
field sqrsum 0
attr interpolationmode none
attr source queueingTime(packetPopped)
attr title "queueing times, histogram"
attr unit s
bin	-inf	0
bin	-0.5	0
bin	-0.48	0
bin	-0.46	0
bin	-0.44	0
bin	-0.42	0
bin	-0.4	0
bin	-0.38	0
bin	-0.36	0
bin	-0.34	0
bin	-0.32	0
bin	-0.3	0
bin	-0.28	0
bin	-0.26	0
bin	-0.24	0
bin	-0.22	0
bin	-0.2	0
bin	-0.18	0
bin	-0.16	0
bin	-0.14	0
bin	-0.12	0
bin	-0.1	0
bin	-0.08	0
bin	-0.06	0
bin	-0.04	0
bin	-0.02	0
bin	0	1
bin	0.02	0
bin	0.04	0
bin	0.06	0
bin	0.08	0
bin	0.1	0
bin	0.12	0
bin	0.14	0
bin	0.16	0
bin	0.18	0
bin	0.2	0
bin	0.22	0
bin	0.24	0
bin	0.26	0
bin	0.28	0
bin	0.3	0
bin	0.32	0
bin	0.34	0
bin	0.36	0
bin	0.38	0
bin	0.4	0
bin	0.42	0
bin	0.44	0
bin	0.46	0
bin	0.48	0
bin	0.5	0
scalar Wireless_12_1m.hostD.wlan[0].mac.queue queueLength:max 1
attr interpolationmode sample-hold
attr source "count(packetPushed) - count(packetPopped) - count(packetRemoved) - count(packetDropped)"
attr title "queue length, max"
scalar Wireless_12_1m.hostD.wlan[0].mac.queue queueLength:timeavg 0
attr interpolationmode sample-hold
attr source "count(packetPushed) - count(packetPopped) - count(packetRemoved) - count(packetDropped)"
attr title "queue length, timeavg"
scalar Wireless_12_1m.hostD.wlan[0].mac.queue packetPushed:count 1
attr interpolationmode none
attr title "packet pushed, count"
scalar Wireless_12_1m.hostD.wlan[0].mac.queue packetPushed:sum(packetBytes) 59
attr interpolationmode none
attr title "packet pushed, sum(packetBytes)"
scalar Wireless_12_1m.hostD.wlan[0].mac.queue packetDropQueueOverflow:count 0
attr interpolationmode none
attr source packetDropReasonIsQueueOverflow(packetDropped)
attr title "packet drops: queue overflow, count"
scalar Wireless_12_1m.hostD.wlan[0].mac.queue packetDropQueueOverflow:sum(packetBytes) 0
attr interpolationmode none
attr source packetDropReasonIsQueueOverflow(packetDropped)
attr title "packet drops: queue overflow, sum(packetBytes)"
scalar Wireless_12_1m.hostD.wlan[0].mac.queue packetRemoved:count 0
attr interpolationmode none
attr title "packets removed, count"
scalar Wireless_12_1m.hostD.wlan[0].mac.queue packetRemoved:sum(packetBytes) 0
attr interpolationmode none
attr title "packets removed, sum(packetBytes)"
scalar Wireless_12_1m.hostD.wlan[0].mac numRetry 1
scalar Wireless_12_1m.hostD.wlan[0].mac numSentWithoutRetry 0
scalar Wireless_12_1m.hostD.wlan[0].mac numGivenUp 0
scalar Wireless_12_1m.hostD.wlan[0].mac numCollision 1
scalar Wireless_12_1m.hostD.wlan[0].mac numSent 1
scalar Wireless_12_1m.hostD.wlan[0].mac numReceived 0
scalar Wireless_12_1m.hostD.wlan[0].mac numSentBroadcast 0
scalar Wireless_12_1m.hostD.wlan[0].mac numReceivedBroadcast 1
scalar Wireless_12_1m.hostD.wlan[0].mac packetDropIncorrectlyReceived:count 1
attr interpolationmode none
attr source packetDropReasonIsIncorrectlyReceived(packetDropped)
attr title "packet drop: incorrectly received, count"
scalar Wireless_12_1m.hostD.wlan[0].mac packetDropIncorrectlyReceived:sum(packetBytes) 59
attr interpolationmode none
attr source packetDropReasonIsIncorrectlyReceived(packetDropped)
attr title "packet drop: incorrectly received, sum(packetBytes)"
scalar Wireless_12_1m.hostD.wlan[0].mac packetDropNotAddressedToUs:count 11
attr interpolationmode none
attr source packetDropReasonIsNotAddressedToUs(packetDropped)
attr title "packet drop: not addressed to us, count"
scalar Wireless_12_1m.hostD.wlan[0].mac packetDropNotAddressedToUs:sum(packetBytes) 649
attr interpolationmode none
attr source packetDropReasonIsNotAddressedToUs(packetDropped)
attr title "packet drop: not addressed to us, sum(packetBytes)"
scalar Wireless_12_1m.hostD.wlan[0].mac packetDropQueueOverflow:count 0
attr interpolationmode none
attr source packetDropReasonIsQueueOverflow(packetDropped)
attr title "packet drop: queue overflow, count"
scalar Wireless_12_1m.hostD.wlan[0].mac packetDropQueueOverflow:sum(packetBytes) 0
attr interpolationmode none
attr source packetDropReasonIsQueueOverflow(packetDropped)
attr title "packet drop: queue overflow, sum(packetBytes)"
scalar Wireless_12_1m.hostD.wlan[0].mac packetDropRetryLimitReached:count 0
attr interpolationmode none
attr source packetDropReasonIsRetryLimitReached(packetDropped)
attr title "packet drop: retry limit reached, count"
scalar Wireless_12_1m.hostD.wlan[0].mac packetDropRetryLimitReached:sum(packetBytes) 0
attr interpolationmode none
attr source packetDropReasonIsRetryLimitReached(packetDropped)
attr title "packet drop: retry limit reached, sum(packetBytes)"
scalar Wireless_12_1m.hostD.wlan[0].mac linkBroken:count 0
attr interpolationmode none
attr source linkBroken
attr title "link break, count"
scalar Wireless_12_1m.hostD.wlan[0].radio radioMode:count 7
attr interpolationmode sample-hold
attr source radioModeChanged
attr title "Radio mode, count"
scalar Wireless_12_1m.hostD.wlan[0].radio receptionState:count 57
attr interpolationmode sample-hold
attr source receptionStateChanged
attr title "Radio reception state, count"
scalar Wireless_12_1m.hostD.wlan[0].radio transmissionState:count 8
attr interpolationmode sample-hold
attr source transmissionStateChanged
attr title "Radio transmission state, count"
statistic Wireless_12_1m.hostD.wlan[0].radio minSnir:histogram
field count 25
field mean 459677.59457362
field stddev 1108095.794455
field min 2.332488055142
field max 4929696.1888752
field sum 11491939.864341
field sqrsum 34751618226356
attr source minimumSnir(packetSentToUpper)
attr title "Min SNIR, histogram"
bin	-inf	0
bin	0	8
bin	100000	15
bin	200000	0
bin	300000	0
bin	400000	0
bin	500000	0
bin	600000	0
bin	700000	0
bin	800000	0
bin	900000	0
bin	1000000	0
bin	1100000	0
bin	1200000	0
bin	1300000	0
bin	1400000	0
bin	1500000	0
bin	1600000	0
bin	1700000	0
bin	1800000	0
bin	1900000	0
bin	2000000	0
bin	2100000	0
bin	2200000	0
bin	2300000	0
bin	2400000	0
bin	2500000	0
bin	2600000	0
bin	2700000	0
bin	2800000	0
bin	2900000	0
bin	3000000	0
bin	3100000	1
bin	3200000	0
bin	3300000	0
bin	3400000	0
bin	3500000	0
bin	3600000	0
bin	3700000	0
bin	3800000	0
bin	3900000	0
bin	4000000	0
bin	4100000	0
bin	4200000	0
bin	4300000	0
bin	4400000	0
bin	4500000	0
bin	4600000	0
bin	4700000	0
bin	4800000	0
bin	4900000	1
bin	5000000	0
bin	5100000	0
bin	5200000	0
bin	5300000	0
bin	5400000	0
bin	5500000	0
bin	5600000	0
bin	5700000	0
bin	5800000	0
bin	5900000	0
bin	6000000	0
bin	6100000	0
bin	6200000	0
statistic Wireless_12_1m.hostD.wlan[0].radio packetErrorRate:histogram
field count 25
field mean 0.018146431537558
field stddev 0.090732157687788
field min 0
field max 0.45366078843894
field sum 0.45366078843894
field sqrsum 0.20580811096704
attr source packetErrorRate(packetSentToUpper)
attr title "Packet error rate, histogram"
bin	-inf	0
bin	0	24
bin	0.01	0
bin	0.02	0
bin	0.03	0
bin	0.04	0
bin	0.05	0
bin	0.06	0
bin	0.07	0
bin	0.08	0
bin	0.09	0
bin	0.1	0
bin	0.11	0
bin	0.12	0
bin	0.13	0
bin	0.14	0
bin	0.15	0
bin	0.16	0
bin	0.17	0
bin	0.18	0
bin	0.19	0
bin	0.2	0
bin	0.21	0
bin	0.22	0
bin	0.23	0
bin	0.24	0
bin	0.25	0
bin	0.26	0
bin	0.27	0
bin	0.28	0
bin	0.29	0
bin	0.3	0
bin	0.31	0
bin	0.32	0
bin	0.33	0
bin	0.34	0
bin	0.35	0
bin	0.36	0
bin	0.37	0
bin	0.38	0
bin	0.39	0
bin	0.4	0
bin	0.41	0
bin	0.42	0
bin	0.43	0
bin	0.44	0
bin	0.45	1
bin	0.46	0
bin	0.47	0
bin	0.48	0
bin	0.49	0
bin	0.5	0
bin	0.51	0
bin	0.52	0
bin	0.53	0
bin	0.54	0
bin	0.55	0
bin	0.56	0
bin	0.57	0
statistic Wireless_12_1m.hostD.wlan[0].radio bitErrorRate:histogram
field count 25
field mean 4.5087646521909e-05
field stddev 0.00022543823260954
field min 0
field max 0.0011271911630477
field sum 0.0011271911630477
field sqrsum 1.2705599180529e-06
attr source bitErrorRate(packetSentToUpper)
attr title "Bit error rate, histogram"
bin	-inf	0
bin	0	24
bin	2e-05	0
bin	4e-05	0
bin	6e-05	0
bin	8e-05	0
bin	0.0001	0
bin	0.00012	0
bin	0.00014	0
bin	0.00016	0
bin	0.00018	0
bin	0.0002	0
bin	0.00022	0
bin	0.00024	0
bin	0.00026	0
bin	0.00028	0
bin	0.0003	0
bin	0.00032	0
bin	0.00034	0
bin	0.00036	0
bin	0.00038	0
bin	0.0004	0
bin	0.00042	0
bin	0.00044	0
bin	0.00046	0
bin	0.00048	0
bin	0.0005	0
bin	0.00052	0
bin	0.00054	0
bin	0.00056	0
bin	0.00058	0
bin	0.0006	0
bin	0.00062	0
bin	0.00064	0
bin	0.00066	0
bin	0.00068	0
bin	0.0007	0
bin	0.00072	0
bin	0.00074	0
bin	0.00076	0
bin	0.00078	0
bin	0.0008	0
bin	0.00082	0
bin	0.00084	0
bin	0.00086	0
bin	0.00088	0
bin	0.0009	0
bin	0.00092	0
bin	0.00094	0
bin	0.00096	0
bin	0.00098	0
bin	0.001	0
bin	0.00102	0
bin	0.00104	0
bin	0.00106	0
bin	0.00108	0
bin	0.0011	0
bin	0.00112	1
bin	0.00114	0
bin	0.00116	0
bin	0.00118	0
bin	0.0012	0
bin	0.00122	0
bin	0.00124	0
bin	0.00126	0
bin	0.00128	0
bin	0.0013	0
bin	0.00132	0
bin	0.00134	0
bin	0.00136	0
bin	0.00138	0
bin	0.0014	0
bin	0.00142	0
statistic Wireless_12_1m.hostD.wlan[0].radio symbolErrorRate:histogram
field count 25
field mean 4.5087646521909e-05
field stddev 0.00022543823260954
field min 0
field max 0.0011271911630477
field sum 0.0011271911630477
field sqrsum 1.2705599180529e-06
attr source symbolErrorRate(packetSentToUpper)
attr title "Symbol error rate, histogram"
bin	-inf	0
bin	0	24
bin	2e-05	0
bin	4e-05	0
bin	6e-05	0
bin	8e-05	0
bin	0.0001	0
bin	0.00012	0
bin	0.00014	0
bin	0.00016	0
bin	0.00018	0
bin	0.0002	0
bin	0.00022	0
bin	0.00024	0
bin	0.00026	0
bin	0.00028	0
bin	0.0003	0
bin	0.00032	0
bin	0.00034	0
bin	0.00036	0
bin	0.00038	0
bin	0.0004	0
bin	0.00042	0
bin	0.00044	0
bin	0.00046	0
bin	0.00048	0
bin	0.0005	0
bin	0.00052	0
bin	0.00054	0
bin	0.00056	0
bin	0.00058	0
bin	0.0006	0
bin	0.00062	0
bin	0.00064	0
bin	0.00066	0
bin	0.00068	0
bin	0.0007	0
bin	0.00072	0
bin	0.00074	0
bin	0.00076	0
bin	0.00078	0
bin	0.0008	0
bin	0.00082	0
bin	0.00084	0
bin	0.00086	0
bin	0.00088	0
bin	0.0009	0
bin	0.00092	0
bin	0.00094	0
bin	0.00096	0
bin	0.00098	0
bin	0.001	0
bin	0.00102	0
bin	0.00104	0
bin	0.00106	0
bin	0.00108	0
bin	0.0011	0
bin	0.00112	1
bin	0.00114	0
bin	0.00116	0
bin	0.00118	0
bin	0.0012	0
bin	0.00122	0
bin	0.00124	0
bin	0.00126	0
bin	0.00128	0
bin	0.0013	0
bin	0.00132	0
bin	0.00134	0
bin	0.00136	0
bin	0.00138	0
bin	0.0014	0
bin	0.00142	0
scalar Wireless_12_1m.hostD.ipv4.ip packetDropAddressResolutionFailed:count 0
attr interpolationmode none
attr source packetDropReasonIsAddressResolutionFailed(packetDropped)
attr title "packet drop: address resolution failed, count"
scalar Wireless_12_1m.hostD.ipv4.ip packetDropAddressResolutionFailed:sum(packetBytes) 0
attr interpolationmode none
attr source packetDropReasonIsAddressResolutionFailed(packetDropped)
attr title "packet drop: address resolution failed, sum(packetBytes)"
scalar Wireless_12_1m.hostD.ipv4.ip packetDropHopLimitReached:count 0
attr interpolationmode none
attr source packetDropReasonIsHopLimitReached(packetDropped)
attr title "packet drop: hop limit reached, count"
scalar Wireless_12_1m.hostD.ipv4.ip packetDropHopLimitReached:sum(packetBytes) 0
attr interpolationmode none
attr source packetDropReasonIsHopLimitReached(packetDropped)
attr title "packet drop: hop limit reached, sum(packetBytes)"
scalar Wireless_12_1m.hostD.ipv4.ip packetDropForwardingDisabled:count 0
attr interpolationmode none
attr source packetDropReasonIsForwardingDisabled(packetDropped)
attr title "packet drop: forwarding disabled, count"
scalar Wireless_12_1m.hostD.ipv4.ip packetDropForwardingDisabled:sum(packetBytes) 0
attr interpolationmode none
attr source packetDropReasonIsForwardingDisabled(packetDropped)
attr title "packet drop: forwarding disabled, sum(packetBytes)"
scalar Wireless_12_1m.hostD.ipv4.ip packetDropNoInterfaceFound:count 0
attr interpolationmode none
attr source packetDropReasonIsNoInterfaceFound(packetDropped)
attr title "packet drop: no interface found, count"
scalar Wireless_12_1m.hostD.ipv4.ip packetDropNoInterfaceFound:sum(packetBytes) 0
attr interpolationmode none
attr source packetDropReasonIsNoInterfaceFound(packetDropped)
attr title "packet drop: no interface found, sum(packetBytes)"
scalar Wireless_12_1m.hostD.ipv4.ip packetDropNoRouteFound:count 0
attr interpolationmode none
attr source packetDropReasonIsNoRouteFound(packetDropped)
attr title "packet drop: no route found, count"
scalar Wireless_12_1m.hostD.ipv4.ip packetDropNoRouteFound:sum(packetBytes) 0
attr interpolationmode none
attr source packetDropReasonIsNoRouteFound(packetDropped)
attr title "packet drop: no route found, sum(packetBytes)"
scalar Wireless_12_1m.hostD.ipv4.ip packetDropUndefined:count 0
attr interpolationmode none
attr source packetDropReasonIsUndefined(packetDropped)
attr title "packet drop: undefined, count"
scalar Wireless_12_1m.hostD.ipv4.ip packetDropUndefined:sum(packetBytes) 0
attr interpolationmode none
attr source packetDropReasonIsUndefined(packetDropped)
attr title "packet drop: undefined, sum(packetBytes)"
scalar Wireless_12_1m.hostD.udp packetReceived:count 1
attr interpolationmode none
attr source packetReceived
attr title "packets received, count"
scalar Wireless_12_1m.hostD.udp packetReceived:sum(packetBytes) 12
attr interpolationmode none
attr source packetReceived
attr title "packets received, sum(packetBytes)"
scalar Wireless_12_1m.hostD.udp packetSent:count 1
attr interpolationmode none
attr source packetSent
attr title "packets sent, count"
scalar Wireless_12_1m.hostD.udp packetSent:sum(packetBytes) 12
attr interpolationmode none
attr source packetSent
attr title "packets sent, sum(packetBytes)"
scalar Wireless_12_1m.hostD.udp passedUpPk:count 1
attr interpolationmode none
attr source packetSentToUpper
attr title "packets passed up, count"
scalar Wireless_12_1m.hostD.udp droppedPkWrongPort:count 0
attr interpolationmode none
attr source packetDropReasonIsNoPortFound(packetDropped)
attr title "packets dropped (wrong port), count"
scalar Wireless_12_1m.hostD.udp droppedPkBadChecksum:count 0
attr interpolationmode none
attr source packetDropReasonIsIncorrectlyReceived(packetDropped)
attr title "packets dropped (checksum error), count"
scalar Wireless_12_1m.hostE.lo[0].lo rcvdPkFromHl:count 0
attr interpolationmode none
attr source packetReceivedFromUpper
attr title "packets received from higher layer, count"
scalar Wireless_12_1m.hostE.lo[0].lo rcvdPkFromHl:sum(packetBytes) 0
attr interpolationmode none
attr source packetReceivedFromUpper
attr title "packets received from higher layer, sum(packetBytes)"
scalar Wireless_12_1m.hostE.lo[0].lo passedUpPk:count 0
attr interpolationmode none
attr source packetSentToUpper
attr title "packets passed to higher layer, count"
scalar Wireless_12_1m.hostE.lo[0].lo passedUpPk:sum(packetBytes) 0
attr interpolationmode none
attr source packetSentToUpper
attr title "packets passed to higher layer, sum(packetBytes)"
scalar Wireless_12_1m.hostE.wlan[0].mac.queue packetPopped:count 1
attr interpolationmode none
attr title "packet popped, count"
scalar Wireless_12_1m.hostE.wlan[0].mac.queue packetPopped:sum(packetBytes) 59
attr interpolationmode none
attr title "packet popped, sum(packetBytes)"
statistic Wireless_12_1m.hostE.wlan[0].mac.queue queueingTime:histogram
field count 1
field mean 0
field stddev -nan
field min 0
field max 0
field sum 0
field sqrsum 0
attr interpolationmode none
attr source queueingTime(packetPopped)
attr title "queueing times, histogram"
attr unit s
bin	-inf	0
bin	-0.5	0
bin	-0.48	0
bin	-0.46	0
bin	-0.44	0
bin	-0.42	0
bin	-0.4	0
bin	-0.38	0
bin	-0.36	0
bin	-0.34	0
bin	-0.32	0
bin	-0.3	0
bin	-0.28	0
bin	-0.26	0
bin	-0.24	0
bin	-0.22	0
bin	-0.2	0
bin	-0.18	0
bin	-0.16	0
bin	-0.14	0
bin	-0.12	0
bin	-0.1	0
bin	-0.08	0
bin	-0.06	0
bin	-0.04	0
bin	-0.02	0
bin	0	1
bin	0.02	0
bin	0.04	0
bin	0.06	0
bin	0.08	0
bin	0.1	0
bin	0.12	0
bin	0.14	0
bin	0.16	0
bin	0.18	0
bin	0.2	0
bin	0.22	0
bin	0.24	0
bin	0.26	0
bin	0.28	0
bin	0.3	0
bin	0.32	0
bin	0.34	0
bin	0.36	0
bin	0.38	0
bin	0.4	0
bin	0.42	0
bin	0.44	0
bin	0.46	0
bin	0.48	0
bin	0.5	0
scalar Wireless_12_1m.hostE.wlan[0].mac.queue queueLength:max 1
attr interpolationmode sample-hold
attr source "count(packetPushed) - count(packetPopped) - count(packetRemoved) - count(packetDropped)"
attr title "queue length, max"
scalar Wireless_12_1m.hostE.wlan[0].mac.queue queueLength:timeavg 0
attr interpolationmode sample-hold
attr source "count(packetPushed) - count(packetPopped) - count(packetRemoved) - count(packetDropped)"
attr title "queue length, timeavg"
scalar Wireless_12_1m.hostE.wlan[0].mac.queue packetPushed:count 1
attr interpolationmode none
attr title "packet pushed, count"
scalar Wireless_12_1m.hostE.wlan[0].mac.queue packetPushed:sum(packetBytes) 59
attr interpolationmode none
attr title "packet pushed, sum(packetBytes)"
scalar Wireless_12_1m.hostE.wlan[0].mac.queue packetDropQueueOverflow:count 0
attr interpolationmode none
attr source packetDropReasonIsQueueOverflow(packetDropped)
attr title "packet drops: queue overflow, count"
scalar Wireless_12_1m.hostE.wlan[0].mac.queue packetDropQueueOverflow:sum(packetBytes) 0
attr interpolationmode none
attr source packetDropReasonIsQueueOverflow(packetDropped)
attr title "packet drops: queue overflow, sum(packetBytes)"
scalar Wireless_12_1m.hostE.wlan[0].mac.queue packetRemoved:count 0
attr interpolationmode none
attr title "packets removed, count"
scalar Wireless_12_1m.hostE.wlan[0].mac.queue packetRemoved:sum(packetBytes) 0
attr interpolationmode none
attr title "packets removed, sum(packetBytes)"
scalar Wireless_12_1m.hostE.wlan[0].mac numRetry 0
scalar Wireless_12_1m.hostE.wlan[0].mac numSentWithoutRetry 1
scalar Wireless_12_1m.hostE.wlan[0].mac numGivenUp 0
scalar Wireless_12_1m.hostE.wlan[0].mac numCollision 2
scalar Wireless_12_1m.hostE.wlan[0].mac numSent 1
scalar Wireless_12_1m.hostE.wlan[0].mac numReceived 0
scalar Wireless_12_1m.hostE.wlan[0].mac numSentBroadcast 0
scalar Wireless_12_1m.hostE.wlan[0].mac numReceivedBroadcast 1
scalar Wireless_12_1m.hostE.wlan[0].mac packetDropIncorrectlyReceived:count 2
attr interpolationmode none
attr source packetDropReasonIsIncorrectlyReceived(packetDropped)
attr title "packet drop: incorrectly received, count"
scalar Wireless_12_1m.hostE.wlan[0].mac packetDropIncorrectlyReceived:sum(packetBytes) 118
attr interpolationmode none
attr source packetDropReasonIsIncorrectlyReceived(packetDropped)
attr title "packet drop: incorrectly received, sum(packetBytes)"
scalar Wireless_12_1m.hostE.wlan[0].mac packetDropNotAddressedToUs:count 11
attr interpolationmode none
attr source packetDropReasonIsNotAddressedToUs(packetDropped)
attr title "packet drop: not addressed to us, count"
scalar Wireless_12_1m.hostE.wlan[0].mac packetDropNotAddressedToUs:sum(packetBytes) 649
attr interpolationmode none
attr source packetDropReasonIsNotAddressedToUs(packetDropped)
attr title "packet drop: not addressed to us, sum(packetBytes)"
scalar Wireless_12_1m.hostE.wlan[0].mac packetDropQueueOverflow:count 0
attr interpolationmode none
attr source packetDropReasonIsQueueOverflow(packetDropped)
attr title "packet drop: queue overflow, count"
scalar Wireless_12_1m.hostE.wlan[0].mac packetDropQueueOverflow:sum(packetBytes) 0
attr interpolationmode none
attr source packetDropReasonIsQueueOverflow(packetDropped)
attr title "packet drop: queue overflow, sum(packetBytes)"
scalar Wireless_12_1m.hostE.wlan[0].mac packetDropRetryLimitReached:count 0
attr interpolationmode none
attr source packetDropReasonIsRetryLimitReached(packetDropped)
attr title "packet drop: retry limit reached, count"
scalar Wireless_12_1m.hostE.wlan[0].mac packetDropRetryLimitReached:sum(packetBytes) 0
attr interpolationmode none
attr source packetDropReasonIsRetryLimitReached(packetDropped)
attr title "packet drop: retry limit reached, sum(packetBytes)"
scalar Wireless_12_1m.hostE.wlan[0].mac linkBroken:count 0
attr interpolationmode none
attr source linkBroken
attr title "link break, count"
scalar Wireless_12_1m.hostE.wlan[0].radio radioMode:count 5
attr interpolationmode sample-hold
attr source radioModeChanged
attr title "Radio mode, count"
scalar Wireless_12_1m.hostE.wlan[0].radio receptionState:count 57
attr interpolationmode sample-hold
attr source receptionStateChanged
attr title "Radio reception state, count"
scalar Wireless_12_1m.hostE.wlan[0].radio transmissionState:count 4
attr interpolationmode sample-hold
attr source transmissionStateChanged
attr title "Radio transmission state, count"
statistic Wireless_12_1m.hostE.wlan[0].radio minSnir:histogram
field count 26
field mean 278251.60980023
field stddev 598923.85765868
field min 1.319837696404
field max 3136599.3679114
field sum 7234541.8548061
field sqrsum 10980767599086
attr source minimumSnir(packetSentToUpper)
attr title "Min SNIR, histogram"
bin	-inf	0
bin	0	3
bin	50000	6
bin	100000	2
bin	150000	13
bin	200000	0
bin	250000	0
bin	300000	0
bin	350000	0
bin	400000	0
bin	450000	0
bin	500000	0
bin	550000	0
bin	600000	0
bin	650000	0
bin	700000	1
bin	750000	0
bin	800000	0
bin	850000	0
bin	900000	0
bin	950000	0
bin	1000000	0
bin	1050000	0
bin	1100000	0
bin	1150000	0
bin	1200000	0
bin	1250000	0
bin	1300000	0
bin	1350000	0
bin	1400000	0
bin	1450000	0
bin	1500000	0
bin	1550000	0
bin	1600000	0
bin	1650000	0
bin	1700000	0
bin	1750000	0
bin	1800000	0
bin	1850000	0
bin	1900000	0
bin	1950000	0
bin	2000000	0
bin	2050000	0
bin	2100000	0
bin	2150000	0
bin	2200000	0
bin	2250000	0
bin	2300000	0
bin	2350000	0
bin	2400000	0
bin	2450000	0
bin	2500000	0
bin	2550000	0
bin	2600000	0
bin	2650000	0
bin	2700000	0
bin	2750000	0
bin	2800000	0
bin	2850000	0
bin	2900000	0
bin	2950000	0
bin	3000000	0
bin	3050000	0
bin	3100000	1
bin	3150000	0
bin	3200000	0
bin	3250000	0
bin	3300000	0
bin	3350000	0
bin	3400000	0
bin	3450000	0
bin	3500000	0
bin	3550000	0
bin	3600000	0
bin	3650000	0
bin	3700000	0
bin	3750000	0
bin	3800000	0
bin	3850000	0
bin	3900000	0
bin	3950000	0
statistic Wireless_12_1m.hostE.wlan[0].radio packetErrorRate:histogram
field count 26
field mean 0.076671233683029
field stddev 0.27085681298476
field min 0
field max 0.99701695845893
field sum 1.9934520757587
field sqrsum 1.986925758443
attr source packetErrorRate(packetSentToUpper)
attr title "Packet error rate, histogram"
bin	-inf	0
bin	0	24
bin	0.02	0
bin	0.04	0
bin	0.06	0
bin	0.08	0
bin	0.1	0
bin	0.12	0
bin	0.14	0
bin	0.16	0
bin	0.18	0
bin	0.2	0
bin	0.22	0
bin	0.24	0
bin	0.26	0
bin	0.28	0
bin	0.3	0
bin	0.32	0
bin	0.34	0
bin	0.36	0
bin	0.38	0
bin	0.4	0
bin	0.42	0
bin	0.44	0
bin	0.46	0
bin	0.48	0
bin	0.5	0
bin	0.52	0
bin	0.54	0
bin	0.56	0
bin	0.58	0
bin	0.6	0
bin	0.62	0
bin	0.64	0
bin	0.66	0
bin	0.68	0
bin	0.7	0
bin	0.72	0
bin	0.74	0
bin	0.76	0
bin	0.78	0
bin	0.8	0
bin	0.82	0
bin	0.84	0
bin	0.86	0
bin	0.88	0
bin	0.9	0
bin	0.92	0
bin	0.94	0
bin	0.96	0
bin	0.98	2
bin	1	0
bin	1.02	0
bin	1.04	0
bin	1.06	0
bin	1.08	0
bin	1.1	0
bin	1.12	0
bin	1.14	0
bin	1.16	0
bin	1.18	0
bin	1.2	0
bin	1.22	0
bin	1.24	0
bin	1.26	0
statistic Wireless_12_1m.hostE.wlan[0].radio bitErrorRate:histogram
field count 26
field mean 0.0008173417510116
field stddev 0.0028878013913359
field min 0
field max 0.010789896488664
field sum 0.021250885526302
field sqrsum 0.00022585415788166
attr source bitErrorRate(packetSentToUpper)
attr title "Bit error rate, histogram"
bin	-inf	0
bin	0	24
bin	0.0002	0
bin	0.0004	0
bin	0.0006	0
bin	0.0008	0
bin	0.001	0
bin	0.0012	0
bin	0.0014	0
bin	0.0016	0
bin	0.0018	0
bin	0.002	0
bin	0.0022	0
bin	0.0024	0
bin	0.0026	0
bin	0.0028	0
bin	0.003	0
bin	0.0032	0
bin	0.0034	0
bin	0.0036	0
bin	0.0038	0
bin	0.004	0
bin	0.0042	0
bin	0.0044	0
bin	0.0046	0
bin	0.0048	0
bin	0.005	0
bin	0.0052	0
bin	0.0054	0
bin	0.0056	0
bin	0.0058	0
bin	0.006	0
bin	0.0062	0
bin	0.0064	0
bin	0.0066	0
bin	0.0068	0
bin	0.007	0
bin	0.0072	0
bin	0.0074	0
bin	0.0076	0
bin	0.0078	0
bin	0.008	0
bin	0.0082	0
bin	0.0084	0
bin	0.0086	0
bin	0.0088	0
bin	0.009	0
bin	0.0092	0
bin	0.0094	0
bin	0.0096	0
bin	0.0098	0
bin	0.01	0
bin	0.0102	0
bin	0.0104	1
bin	0.0106	1
bin	0.0108	0
bin	0.011	0
bin	0.0112	0
bin	0.0114	0
bin	0.0116	0
bin	0.0118	0
bin	0.012	0
bin	0.0122	0
bin	0.0124	0
bin	0.0126	0
bin	0.0128	0
bin	0.013	0
bin	0.0132	0
bin	0.0134	0
bin	0.0136	0
statistic Wireless_12_1m.hostE.wlan[0].radio symbolErrorRate:histogram
field count 26
field mean 0.0008173417510116
field stddev 0.0028878013913359
field min 0
field max 0.010789896488664
field sum 0.021250885526302
field sqrsum 0.00022585415788166
attr source symbolErrorRate(packetSentToUpper)
attr title "Symbol error rate, histogram"
bin	-inf	0
bin	0	24
bin	0.0002	0
bin	0.0004	0
bin	0.0006	0
bin	0.0008	0
bin	0.001	0
bin	0.0012	0
bin	0.0014	0
bin	0.0016	0
bin	0.0018	0
bin	0.002	0
bin	0.0022	0
bin	0.0024	0
bin	0.0026	0
bin	0.0028	0
bin	0.003	0
bin	0.0032	0
bin	0.0034	0
bin	0.0036	0
bin	0.0038	0
bin	0.004	0
bin	0.0042	0
bin	0.0044	0
bin	0.0046	0
bin	0.0048	0
bin	0.005	0
bin	0.0052	0
bin	0.0054	0
bin	0.0056	0
bin	0.0058	0
bin	0.006	0
bin	0.0062	0
bin	0.0064	0
bin	0.0066	0
bin	0.0068	0
bin	0.007	0
bin	0.0072	0
bin	0.0074	0
bin	0.0076	0
bin	0.0078	0
bin	0.008	0
bin	0.0082	0
bin	0.0084	0
bin	0.0086	0
bin	0.0088	0
bin	0.009	0
bin	0.0092	0
bin	0.0094	0
bin	0.0096	0
bin	0.0098	0
bin	0.01	0
bin	0.0102	0
bin	0.0104	1
bin	0.0106	1
bin	0.0108	0
bin	0.011	0
bin	0.0112	0
bin	0.0114	0
bin	0.0116	0
bin	0.0118	0
bin	0.012	0
bin	0.0122	0
bin	0.0124	0
bin	0.0126	0
bin	0.0128	0
bin	0.013	0
bin	0.0132	0
bin	0.0134	0
bin	0.0136	0
scalar Wireless_12_1m.hostE.ipv4.ip packetDropAddressResolutionFailed:count 0
attr interpolationmode none
attr source packetDropReasonIsAddressResolutionFailed(packetDropped)
attr title "packet drop: address resolution failed, count"
scalar Wireless_12_1m.hostE.ipv4.ip packetDropAddressResolutionFailed:sum(packetBytes) 0
attr interpolationmode none
attr source packetDropReasonIsAddressResolutionFailed(packetDropped)
attr title "packet drop: address resolution failed, sum(packetBytes)"
scalar Wireless_12_1m.hostE.ipv4.ip packetDropHopLimitReached:count 0
attr interpolationmode none
attr source packetDropReasonIsHopLimitReached(packetDropped)
attr title "packet drop: hop limit reached, count"
scalar Wireless_12_1m.hostE.ipv4.ip packetDropHopLimitReached:sum(packetBytes) 0
attr interpolationmode none
attr source packetDropReasonIsHopLimitReached(packetDropped)
attr title "packet drop: hop limit reached, sum(packetBytes)"
scalar Wireless_12_1m.hostE.ipv4.ip packetDropForwardingDisabled:count 0
attr interpolationmode none
attr source packetDropReasonIsForwardingDisabled(packetDropped)
attr title "packet drop: forwarding disabled, count"
scalar Wireless_12_1m.hostE.ipv4.ip packetDropForwardingDisabled:sum(packetBytes) 0
attr interpolationmode none
attr source packetDropReasonIsForwardingDisabled(packetDropped)
attr title "packet drop: forwarding disabled, sum(packetBytes)"
scalar Wireless_12_1m.hostE.ipv4.ip packetDropNoInterfaceFound:count 0
attr interpolationmode none
attr source packetDropReasonIsNoInterfaceFound(packetDropped)
attr title "packet drop: no interface found, count"
scalar Wireless_12_1m.hostE.ipv4.ip packetDropNoInterfaceFound:sum(packetBytes) 0
attr interpolationmode none
attr source packetDropReasonIsNoInterfaceFound(packetDropped)
attr title "packet drop: no interface found, sum(packetBytes)"
scalar Wireless_12_1m.hostE.ipv4.ip packetDropNoRouteFound:count 0
attr interpolationmode none
attr source packetDropReasonIsNoRouteFound(packetDropped)
attr title "packet drop: no route found, count"
scalar Wireless_12_1m.hostE.ipv4.ip packetDropNoRouteFound:sum(packetBytes) 0
attr interpolationmode none
attr source packetDropReasonIsNoRouteFound(packetDropped)
attr title "packet drop: no route found, sum(packetBytes)"
scalar Wireless_12_1m.hostE.ipv4.ip packetDropUndefined:count 0
attr interpolationmode none
attr source packetDropReasonIsUndefined(packetDropped)
attr title "packet drop: undefined, count"
scalar Wireless_12_1m.hostE.ipv4.ip packetDropUndefined:sum(packetBytes) 0
attr interpolationmode none
attr source packetDropReasonIsUndefined(packetDropped)
attr title "packet drop: undefined, sum(packetBytes)"
scalar Wireless_12_1m.hostE.udp packetReceived:count 1
attr interpolationmode none
attr source packetReceived
attr title "packets received, count"
scalar Wireless_12_1m.hostE.udp packetReceived:sum(packetBytes) 12
attr interpolationmode none
attr source packetReceived
attr title "packets received, sum(packetBytes)"
scalar Wireless_12_1m.hostE.udp packetSent:count 1
attr interpolationmode none
attr source packetSent
attr title "packets sent, count"
scalar Wireless_12_1m.hostE.udp packetSent:sum(packetBytes) 12
attr interpolationmode none
attr source packetSent
attr title "packets sent, sum(packetBytes)"
scalar Wireless_12_1m.hostE.udp passedUpPk:count 1
attr interpolationmode none
attr source packetSentToUpper
attr title "packets passed up, count"
scalar Wireless_12_1m.hostE.udp droppedPkWrongPort:count 0
attr interpolationmode none
attr source packetDropReasonIsNoPortFound(packetDropped)
attr title "packets dropped (wrong port), count"
scalar Wireless_12_1m.hostE.udp droppedPkBadChecksum:count 0
attr interpolationmode none
attr source packetDropReasonIsIncorrectlyReceived(packetDropped)
attr title "packets dropped (checksum error), count"
scalar Wireless_12_1m.hostF.lo[0].lo rcvdPkFromHl:count 0
attr interpolationmode none
attr source packetReceivedFromUpper
attr title "packets received from higher layer, count"
scalar Wireless_12_1m.hostF.lo[0].lo rcvdPkFromHl:sum(packetBytes) 0
attr interpolationmode none
attr source packetReceivedFromUpper
attr title "packets received from higher layer, sum(packetBytes)"
scalar Wireless_12_1m.hostF.lo[0].lo passedUpPk:count 0
attr interpolationmode none
attr source packetSentToUpper
attr title "packets passed to higher layer, count"
scalar Wireless_12_1m.hostF.lo[0].lo passedUpPk:sum(packetBytes) 0
attr interpolationmode none
attr source packetSentToUpper
attr title "packets passed to higher layer, sum(packetBytes)"
scalar Wireless_12_1m.hostF.wlan[0].mac.queue packetPopped:count 1
attr interpolationmode none
attr title "packet popped, count"
scalar Wireless_12_1m.hostF.wlan[0].mac.queue packetPopped:sum(packetBytes) 59
attr interpolationmode none
attr title "packet popped, sum(packetBytes)"
statistic Wireless_12_1m.hostF.wlan[0].mac.queue queueingTime:histogram
field count 1
field mean 0
field stddev -nan
field min 0
field max 0
field sum 0
field sqrsum 0
attr interpolationmode none
attr source queueingTime(packetPopped)
attr title "queueing times, histogram"
attr unit s
bin	-inf	0
bin	-0.5	0
bin	-0.48	0
bin	-0.46	0
bin	-0.44	0
bin	-0.42	0
bin	-0.4	0
bin	-0.38	0
bin	-0.36	0
bin	-0.34	0
bin	-0.32	0
bin	-0.3	0
bin	-0.28	0
bin	-0.26	0
bin	-0.24	0
bin	-0.22	0
bin	-0.2	0
bin	-0.18	0
bin	-0.16	0
bin	-0.14	0
bin	-0.12	0
bin	-0.1	0
bin	-0.08	0
bin	-0.06	0
bin	-0.04	0
bin	-0.02	0
bin	0	1
bin	0.02	0
bin	0.04	0
bin	0.06	0
bin	0.08	0
bin	0.1	0
bin	0.12	0
bin	0.14	0
bin	0.16	0
bin	0.18	0
bin	0.2	0
bin	0.22	0
bin	0.24	0
bin	0.26	0
bin	0.28	0
bin	0.3	0
bin	0.32	0
bin	0.34	0
bin	0.36	0
bin	0.38	0
bin	0.4	0
bin	0.42	0
bin	0.44	0
bin	0.46	0
bin	0.48	0
bin	0.5	0
scalar Wireless_12_1m.hostF.wlan[0].mac.queue queueLength:max 1
attr interpolationmode sample-hold
attr source "count(packetPushed) - count(packetPopped) - count(packetRemoved) - count(packetDropped)"
attr title "queue length, max"
scalar Wireless_12_1m.hostF.wlan[0].mac.queue queueLength:timeavg 0
attr interpolationmode sample-hold
attr source "count(packetPushed) - count(packetPopped) - count(packetRemoved) - count(packetDropped)"
attr title "queue length, timeavg"
scalar Wireless_12_1m.hostF.wlan[0].mac.queue packetPushed:count 1
attr interpolationmode none
attr title "packet pushed, count"
scalar Wireless_12_1m.hostF.wlan[0].mac.queue packetPushed:sum(packetBytes) 59
attr interpolationmode none
attr title "packet pushed, sum(packetBytes)"
scalar Wireless_12_1m.hostF.wlan[0].mac.queue packetDropQueueOverflow:count 0
attr interpolationmode none
attr source packetDropReasonIsQueueOverflow(packetDropped)
attr title "packet drops: queue overflow, count"
[...]
bin	0.0048	0
bin	0.005	0
bin	0.0052	0
bin	0.0054	0
bin	0.0056	0
bin	0.0058	0
bin	0.006	0
bin	0.0062	0
bin	0.0064	0
bin	0.0066	0
bin	0.0068	0
bin	0.007	0
bin	0.0072	0
bin	0.0074	0
bin	0.0076	0
bin	0.0078	0
bin	0.008	0
bin	0.0082	0
bin	0.0084	0
bin	0.0086	0
bin	0.0088	0
bin	0.009	0
bin	0.0092	0
bin	0.0094	0
bin	0.0096	0
bin	0.0098	0
bin	0.01	0
bin	0.0102	0
bin	0.0104	0
bin	0.0106	0
bin	0.0108	0
bin	0.011	0
bin	0.0112	0
bin	0.0114	0
bin	0.0116	0
bin	0.0118	0
bin	0.012	0
bin	0.0122	0
bin	0.0124	0
bin	0.0126	0
bin	0.0128	0
bin	0.013	0
bin	0.0132	0
bin	0.0134	0
bin	0.0136	0
bin	0.0138	0
bin	0.014	0
bin	0.0142	0
bin	0.0144	0
bin	0.0146	1
bin	0.0148	0
bin	0.015	0
bin	0.0152	0
bin	0.0154	0
bin	0.0156	0
bin	0.0158	0
bin	0.016	0
bin	0.0162	0
bin	0.0164	0
bin	0.0166	0
bin	0.0168	0
bin	0.017	0
bin	0.0172	0
bin	0.0174	0
bin	0.0176	0
bin	0.0178	0
bin	0.018	0
bin	0.0182	0
bin	0.0184	0
scalar Wireless_12_1m.hostL.ipv4.ip packetDropAddressResolutionFailed:count 0
attr interpolationmode none
attr source packetDropReasonIsAddressResolutionFailed(packetDropped)
attr title "packet drop: address resolution failed, count"
scalar Wireless_12_1m.hostL.ipv4.ip packetDropAddressResolutionFailed:sum(packetBytes) 0
attr interpolationmode none
attr source packetDropReasonIsAddressResolutionFailed(packetDropped)
attr title "packet drop: address resolution failed, sum(packetBytes)"
scalar Wireless_12_1m.hostL.ipv4.ip packetDropHopLimitReached:count 0
attr interpolationmode none
attr source packetDropReasonIsHopLimitReached(packetDropped)
attr title "packet drop: hop limit reached, count"
scalar Wireless_12_1m.hostL.ipv4.ip packetDropHopLimitReached:sum(packetBytes) 0
attr interpolationmode none
attr source packetDropReasonIsHopLimitReached(packetDropped)
attr title "packet drop: hop limit reached, sum(packetBytes)"
scalar Wireless_12_1m.hostL.ipv4.ip packetDropForwardingDisabled:count 0
attr interpolationmode none
attr source packetDropReasonIsForwardingDisabled(packetDropped)
attr title "packet drop: forwarding disabled, count"
scalar Wireless_12_1m.hostL.ipv4.ip packetDropForwardingDisabled:sum(packetBytes) 0
attr interpolationmode none
attr source packetDropReasonIsForwardingDisabled(packetDropped)
attr title "packet drop: forwarding disabled, sum(packetBytes)"
scalar Wireless_12_1m.hostL.ipv4.ip packetDropNoInterfaceFound:count 0
attr interpolationmode none
attr source packetDropReasonIsNoInterfaceFound(packetDropped)
attr title "packet drop: no interface found, count"
scalar Wireless_12_1m.hostL.ipv4.ip packetDropNoInterfaceFound:sum(packetBytes) 0
attr interpolationmode none
attr source packetDropReasonIsNoInterfaceFound(packetDropped)
attr title "packet drop: no interface found, sum(packetBytes)"
scalar Wireless_12_1m.hostL.ipv4.ip packetDropNoRouteFound:count 0
attr interpolationmode none
attr source packetDropReasonIsNoRouteFound(packetDropped)
attr title "packet drop: no route found, count"
scalar Wireless_12_1m.hostL.ipv4.ip packetDropNoRouteFound:sum(packetBytes) 0
attr interpolationmode none
attr source packetDropReasonIsNoRouteFound(packetDropped)
attr title "packet drop: no route found, sum(packetBytes)"
scalar Wireless_12_1m.hostL.ipv4.ip packetDropUndefined:count 0
attr interpolationmode none
attr source packetDropReasonIsUndefined(packetDropped)
attr title "packet drop: undefined, count"
scalar Wireless_12_1m.hostL.ipv4.ip packetDropUndefined:sum(packetBytes) 0
attr interpolationmode none
attr source packetDropReasonIsUndefined(packetDropped)
attr title "packet drop: undefined, sum(packetBytes)"
scalar Wireless_12_1m.hostL.udp packetReceived:count 1
attr interpolationmode none
attr source packetReceived
attr title "packets received, count"
scalar Wireless_12_1m.hostL.udp packetReceived:sum(packetBytes) 12
attr interpolationmode none
attr source packetReceived
attr title "packets received, sum(packetBytes)"
scalar Wireless_12_1m.hostL.udp packetSent:count 1
attr interpolationmode none
attr source packetSent
attr title "packets sent, count"
scalar Wireless_12_1m.hostL.udp packetSent:sum(packetBytes) 12
attr interpolationmode none
attr source packetSent
attr title "packets sent, sum(packetBytes)"
scalar Wireless_12_1m.hostL.udp passedUpPk:count 1
attr interpolationmode none
attr source packetSentToUpper
attr title "packets passed up, count"
scalar Wireless_12_1m.hostL.udp droppedPkWrongPort:count 0
attr interpolationmode none
attr source packetDropReasonIsNoPortFound(packetDropped)
attr title "packets dropped (wrong port), count"
scalar Wireless_12_1m.hostL.udp droppedPkBadChecksum:count 0
attr interpolationmode none
attr source packetDropReasonIsIncorrectlyReceived(packetDropped)
attr title "packets dropped (checksum error), count"
scalar Wireless_12_1m.hostM.lo[0].lo rcvdPkFromHl:count 0
attr interpolationmode none
attr source packetReceivedFromUpper
attr title "packets received from higher layer, count"
scalar Wireless_12_1m.hostM.lo[0].lo rcvdPkFromHl:sum(packetBytes) 0
attr interpolationmode none
attr source packetReceivedFromUpper
attr title "packets received from higher layer, sum(packetBytes)"
scalar Wireless_12_1m.hostM.lo[0].lo passedUpPk:count 0
attr interpolationmode none
attr source packetSentToUpper
attr title "packets passed to higher layer, count"
scalar Wireless_12_1m.hostM.lo[0].lo passedUpPk:sum(packetBytes) 0
attr interpolationmode none
attr source packetSentToUpper
attr title "packets passed to higher layer, sum(packetBytes)"
scalar Wireless_12_1m.hostM.wlan[0].mac.queue packetPopped:count 1
attr interpolationmode none
attr title "packet popped, count"
scalar Wireless_12_1m.hostM.wlan[0].mac.queue packetPopped:sum(packetBytes) 59
attr interpolationmode none
attr title "packet popped, sum(packetBytes)"
statistic Wireless_12_1m.hostM.wlan[0].mac.queue queueingTime:histogram
field count 1
field mean 0
field stddev -nan
field min 0
field max 0
field sum 0
field sqrsum 0
attr interpolationmode none
attr source queueingTime(packetPopped)
attr title "queueing times, histogram"
attr unit s
bin	-inf	0
bin	-0.5	0
bin	-0.48	0
bin	-0.46	0
bin	-0.44	0
bin	-0.42	0
bin	-0.4	0
bin	-0.38	0
bin	-0.36	0
bin	-0.34	0
bin	-0.32	0
bin	-0.3	0
bin	-0.28	0
bin	-0.26	0
bin	-0.24	0
bin	-0.22	0
bin	-0.2	0
bin	-0.18	0
bin	-0.16	0
bin	-0.14	0
bin	-0.12	0
bin	-0.1	0
bin	-0.08	0
bin	-0.06	0
bin	-0.04	0
bin	-0.02	0
bin	0	1
bin	0.02	0
bin	0.04	0
bin	0.06	0
bin	0.08	0
bin	0.1	0
bin	0.12	0
bin	0.14	0
bin	0.16	0
bin	0.18	0
bin	0.2	0
bin	0.22	0
bin	0.24	0
bin	0.26	0
bin	0.28	0
bin	0.3	0
bin	0.32	0
bin	0.34	0
bin	0.36	0
bin	0.38	0
bin	0.4	0
bin	0.42	0
bin	0.44	0
bin	0.46	0
bin	0.48	0
bin	0.5	0
scalar Wireless_12_1m.hostM.wlan[0].mac.queue queueLength:max 1
attr interpolationmode sample-hold
attr source "count(packetPushed) - count(packetPopped) - count(packetRemoved) - count(packetDropped)"
attr title "queue length, max"
scalar Wireless_12_1m.hostM.wlan[0].mac.queue queueLength:timeavg 0
attr interpolationmode sample-hold
attr source "count(packetPushed) - count(packetPopped) - count(packetRemoved) - count(packetDropped)"
attr title "queue length, timeavg"
scalar Wireless_12_1m.hostM.wlan[0].mac.queue packetPushed:count 1
attr interpolationmode none
attr title "packet pushed, count"
scalar Wireless_12_1m.hostM.wlan[0].mac.queue packetPushed:sum(packetBytes) 59
attr interpolationmode none
attr title "packet pushed, sum(packetBytes)"
scalar Wireless_12_1m.hostM.wlan[0].mac.queue packetDropQueueOverflow:count 0
attr interpolationmode none
attr source packetDropReasonIsQueueOverflow(packetDropped)
attr title "packet drops: queue overflow, count"
scalar Wireless_12_1m.hostM.wlan[0].mac.queue packetDropQueueOverflow:sum(packetBytes) 0
attr interpolationmode none
attr source packetDropReasonIsQueueOverflow(packetDropped)
attr title "packet drops: queue overflow, sum(packetBytes)"
scalar Wireless_12_1m.hostM.wlan[0].mac.queue packetRemoved:count 0
attr interpolationmode none
attr title "packets removed, count"
scalar Wireless_12_1m.hostM.wlan[0].mac.queue packetRemoved:sum(packetBytes) 0
attr interpolationmode none
attr title "packets removed, sum(packetBytes)"
scalar Wireless_12_1m.hostM.wlan[0].mac numRetry 1
scalar Wireless_12_1m.hostM.wlan[0].mac numSentWithoutRetry 0
scalar Wireless_12_1m.hostM.wlan[0].mac numGivenUp 0
scalar Wireless_12_1m.hostM.wlan[0].mac numCollision 1
scalar Wireless_12_1m.hostM.wlan[0].mac numSent 1
scalar Wireless_12_1m.hostM.wlan[0].mac numReceived 0
scalar Wireless_12_1m.hostM.wlan[0].mac numSentBroadcast 0
scalar Wireless_12_1m.hostM.wlan[0].mac numReceivedBroadcast 1
scalar Wireless_12_1m.hostM.wlan[0].mac packetDropIncorrectlyReceived:count 1
attr interpolationmode none
attr source packetDropReasonIsIncorrectlyReceived(packetDropped)
attr title "packet drop: incorrectly received, count"
scalar Wireless_12_1m.hostM.wlan[0].mac packetDropIncorrectlyReceived:sum(packetBytes) 59
attr interpolationmode none
attr source packetDropReasonIsIncorrectlyReceived(packetDropped)
attr title "packet drop: incorrectly received, sum(packetBytes)"
scalar Wireless_12_1m.hostM.wlan[0].mac packetDropNotAddressedToUs:count 11
attr interpolationmode none
attr source packetDropReasonIsNotAddressedToUs(packetDropped)
attr title "packet drop: not addressed to us, count"
scalar Wireless_12_1m.hostM.wlan[0].mac packetDropNotAddressedToUs:sum(packetBytes) 649
attr interpolationmode none
attr source packetDropReasonIsNotAddressedToUs(packetDropped)
attr title "packet drop: not addressed to us, sum(packetBytes)"
scalar Wireless_12_1m.hostM.wlan[0].mac packetDropQueueOverflow:count 0
attr interpolationmode none
attr source packetDropReasonIsQueueOverflow(packetDropped)
attr title "packet drop: queue overflow, count"
scalar Wireless_12_1m.hostM.wlan[0].mac packetDropQueueOverflow:sum(packetBytes) 0
attr interpolationmode none
attr source packetDropReasonIsQueueOverflow(packetDropped)
attr title "packet drop: queue overflow, sum(packetBytes)"
scalar Wireless_12_1m.hostM.wlan[0].mac packetDropRetryLimitReached:count 0
attr interpolationmode none
attr source packetDropReasonIsRetryLimitReached(packetDropped)
attr title "packet drop: retry limit reached, count"
scalar Wireless_12_1m.hostM.wlan[0].mac packetDropRetryLimitReached:sum(packetBytes) 0
attr interpolationmode none
attr source packetDropReasonIsRetryLimitReached(packetDropped)
attr title "packet drop: retry limit reached, sum(packetBytes)"
scalar Wireless_12_1m.hostM.wlan[0].mac linkBroken:count 0
attr interpolationmode none
attr source linkBroken
attr title "link break, count"
scalar Wireless_12_1m.hostM.wlan[0].radio radioMode:count 7
attr interpolationmode sample-hold
attr source radioModeChanged
attr title "Radio mode, count"
scalar Wireless_12_1m.hostM.wlan[0].radio receptionState:count 57
attr interpolationmode sample-hold
attr source receptionStateChanged
attr title "Radio reception state, count"
scalar Wireless_12_1m.hostM.wlan[0].radio transmissionState:count 8
attr interpolationmode sample-hold
attr source transmissionStateChanged
attr title "Radio transmission state, count"
statistic Wireless_12_1m.hostM.wlan[0].radio minSnir:histogram
field count 25
field mean 306813.51808157
field stddev 616886.34924833
field min 1.8676753959037
field max 3136599.3679114
field sum 7670337.9520392
field sqrsum 11486533801274
attr source minimumSnir(packetSentToUpper)
attr title "Min SNIR, histogram"
bin	-inf	0
bin	0	1
bin	50000	7
bin	100000	1
bin	150000	13
bin	200000	0
bin	250000	0
bin	300000	1
bin	350000	0
bin	400000	0
bin	450000	0
bin	500000	0
bin	550000	0
bin	600000	0
bin	650000	0
bin	700000	0
bin	750000	0
bin	800000	0
bin	850000	0
bin	900000	0
bin	950000	1
bin	1000000	0
bin	1050000	0
bin	1100000	0
bin	1150000	0
bin	1200000	0
bin	1250000	0
bin	1300000	0
bin	1350000	0
bin	1400000	0
bin	1450000	0
bin	1500000	0
bin	1550000	0
bin	1600000	0
bin	1650000	0
bin	1700000	0
bin	1750000	0
bin	1800000	0
bin	1850000	0
bin	1900000	0
bin	1950000	0
bin	2000000	0
bin	2050000	0
bin	2100000	0
bin	2150000	0
bin	2200000	0
bin	2250000	0
bin	2300000	0
bin	2350000	0
bin	2400000	0
bin	2450000	0
bin	2500000	0
bin	2550000	0
bin	2600000	0
bin	2650000	0
bin	2700000	0
bin	2750000	0
bin	2800000	0
bin	2850000	0
bin	2900000	0
bin	2950000	0
bin	3000000	0
bin	3050000	0
bin	3100000	1
bin	3150000	0
bin	3200000	0
bin	3250000	0
bin	3300000	0
bin	3350000	0
bin	3400000	0
bin	3450000	0
bin	3500000	0
bin	3550000	0
bin	3600000	0
bin	3650000	0
bin	3700000	0
bin	3750000	0
bin	3800000	0
bin	3850000	0
bin	3900000	0
bin	3950000	0
statistic Wireless_12_1m.hostM.wlan[0].radio packetErrorRate:histogram
field count 25
field mean 0.032569587855278
field stddev 0.16284793927639
field min 0
field max 0.81423969638194
field sum 0.81423969638194
field sqrsum 0.66298628316415
attr source packetErrorRate(packetSentToUpper)
attr title "Packet error rate, histogram"
bin	-inf	0
bin	0	24
bin	0.02	0
bin	0.04	0
bin	0.06	0
bin	0.08	0
bin	0.1	0
bin	0.12	0
bin	0.14	0
bin	0.16	0
bin	0.18	0
bin	0.2	0
bin	0.22	0
bin	0.24	0
bin	0.26	0
bin	0.28	0
bin	0.3	0
bin	0.32	0
bin	0.34	0
bin	0.36	0
bin	0.38	0
bin	0.4	0
bin	0.42	0
bin	0.44	0
bin	0.46	0
bin	0.48	0
bin	0.5	0
bin	0.52	0
bin	0.54	0
bin	0.56	0
bin	0.58	0
bin	0.6	0
bin	0.62	0
bin	0.64	0
bin	0.66	0
bin	0.68	0
bin	0.7	0
bin	0.72	0
bin	0.74	0
bin	0.76	0
bin	0.78	0
bin	0.8	1
bin	0.82	0
bin	0.84	0
bin	0.86	0
bin	0.88	0
bin	0.9	0
bin	0.92	0
bin	0.94	0
bin	0.96	0
bin	0.98	0
bin	1	0
bin	1.02	0
statistic Wireless_12_1m.hostM.wlan[0].radio bitErrorRate:histogram
field count 25
field mean 0.00012542221701309
field stddev 0.00062711108506543
field min 0
field max 0.0031355554253271
field sum 0.0031355554253271
field sqrsum 9.8317078252985e-06
attr source bitErrorRate(packetSentToUpper)
attr title "Bit error rate, histogram"
bin	-inf	0
bin	0	24
bin	5e-05	0
bin	0.0001	0
bin	0.00015	0
bin	0.0002	0
bin	0.00025	0
bin	0.0003	0
bin	0.00035	0
bin	0.0004	0
bin	0.00045	0
bin	0.0005	0
bin	0.00055	0
bin	0.0006	0
bin	0.00065	0
bin	0.0007	0
bin	0.00075	0
bin	0.0008	0
bin	0.00085	0
bin	0.0009	0
bin	0.00095	0
bin	0.001	0
bin	0.00105	0
bin	0.0011	0
bin	0.00115	0
bin	0.0012	0
bin	0.00125	0
bin	0.0013	0
bin	0.00135	0
bin	0.0014	0
bin	0.00145	0
bin	0.0015	0
bin	0.00155	0
bin	0.0016	0
bin	0.00165	0
bin	0.0017	0
bin	0.00175	0
bin	0.0018	0
bin	0.00185	0
bin	0.0019	0
bin	0.00195	0
bin	0.002	0
bin	0.00205	0
bin	0.0021	0
bin	0.00215	0
bin	0.0022	0
bin	0.00225	0
bin	0.0023	0
bin	0.00235	0
bin	0.0024	0
bin	0.00245	0
bin	0.0025	0
bin	0.00255	0
bin	0.0026	0
bin	0.00265	0
bin	0.0027	0
bin	0.00275	0
bin	0.0028	0
bin	0.00285	0
bin	0.0029	0
bin	0.00295	0
bin	0.003	0
bin	0.00305	0
bin	0.0031	1
bin	0.00315	0
bin	0.0032	0
bin	0.00325	0
bin	0.0033	0
bin	0.00335	0
bin	0.0034	0
bin	0.00345	0
bin	0.0035	0
bin	0.00355	0
bin	0.0036	0
bin	0.00365	0
bin	0.0037	0
bin	0.00375	0
bin	0.0038	0
bin	0.00385	0
bin	0.0039	0
bin	0.00395	0
statistic Wireless_12_1m.hostM.wlan[0].radio symbolErrorRate:histogram
field count 25
field mean 0.00012542221701309
field stddev 0.00062711108506543
field min 0
field max 0.0031355554253271
field sum 0.0031355554253271
field sqrsum 9.8317078252985e-06
attr source symbolErrorRate(packetSentToUpper)
attr title "Symbol error rate, histogram"
bin	-inf	0
bin	0	24
bin	5e-05	0
bin	0.0001	0
bin	0.00015	0
bin	0.0002	0
bin	0.00025	0
bin	0.0003	0
bin	0.00035	0
bin	0.0004	0
bin	0.00045	0
bin	0.0005	0
bin	0.00055	0
bin	0.0006	0
bin	0.00065	0
bin	0.0007	0
bin	0.00075	0
bin	0.0008	0
bin	0.00085	0
bin	0.0009	0
bin	0.00095	0
bin	0.001	0
bin	0.00105	0
bin	0.0011	0
bin	0.00115	0
bin	0.0012	0
bin	0.00125	0
bin	0.0013	0
bin	0.00135	0
bin	0.0014	0
bin	0.00145	0
bin	0.0015	0
bin	0.00155	0
bin	0.0016	0
bin	0.00165	0
bin	0.0017	0
bin	0.00175	0
bin	0.0018	0
bin	0.00185	0
bin	0.0019	0
bin	0.00195	0
bin	0.002	0
bin	0.00205	0
bin	0.0021	0
bin	0.00215	0
bin	0.0022	0
bin	0.00225	0
bin	0.0023	0
bin	0.00235	0
bin	0.0024	0
bin	0.00245	0
bin	0.0025	0
bin	0.00255	0
bin	0.0026	0
bin	0.00265	0
bin	0.0027	0
bin	0.00275	0
bin	0.0028	0
bin	0.00285	0
bin	0.0029	0
bin	0.00295	0
bin	0.003	0
bin	0.00305	0
bin	0.0031	1
bin	0.00315	0
bin	0.0032	0
bin	0.00325	0
bin	0.0033	0
bin	0.00335	0
bin	0.0034	0
bin	0.00345	0
bin	0.0035	0
bin	0.00355	0
bin	0.0036	0
bin	0.00365	0
bin	0.0037	0
bin	0.00375	0
bin	0.0038	0
bin	0.00385	0
bin	0.0039	0
bin	0.00395	0
scalar Wireless_12_1m.hostM.ipv4.ip packetDropAddressResolutionFailed:count 0
attr interpolationmode none
attr source packetDropReasonIsAddressResolutionFailed(packetDropped)
attr title "packet drop: address resolution failed, count"
scalar Wireless_12_1m.hostM.ipv4.ip packetDropAddressResolutionFailed:sum(packetBytes) 0
attr interpolationmode none
attr source packetDropReasonIsAddressResolutionFailed(packetDropped)
attr title "packet drop: address resolution failed, sum(packetBytes)"
scalar Wireless_12_1m.hostM.ipv4.ip packetDropHopLimitReached:count 0
attr interpolationmode none
attr source packetDropReasonIsHopLimitReached(packetDropped)
attr title "packet drop: hop limit reached, count"
scalar Wireless_12_1m.hostM.ipv4.ip packetDropHopLimitReached:sum(packetBytes) 0
attr interpolationmode none
attr source packetDropReasonIsHopLimitReached(packetDropped)
attr title "packet drop: hop limit reached, sum(packetBytes)"
scalar Wireless_12_1m.hostM.ipv4.ip packetDropForwardingDisabled:count 0
attr interpolationmode none
attr source packetDropReasonIsForwardingDisabled(packetDropped)
attr title "packet drop: forwarding disabled, count"
scalar Wireless_12_1m.hostM.ipv4.ip packetDropForwardingDisabled:sum(packetBytes) 0
attr interpolationmode none
attr source packetDropReasonIsForwardingDisabled(packetDropped)
attr title "packet drop: forwarding disabled, sum(packetBytes)"
scalar Wireless_12_1m.hostM.ipv4.ip packetDropNoInterfaceFound:count 0
attr interpolationmode none
attr source packetDropReasonIsNoInterfaceFound(packetDropped)
attr title "packet drop: no interface found, count"
scalar Wireless_12_1m.hostM.ipv4.ip packetDropNoInterfaceFound:sum(packetBytes) 0
attr interpolationmode none
attr source packetDropReasonIsNoInterfaceFound(packetDropped)
attr title "packet drop: no interface found, sum(packetBytes)"
scalar Wireless_12_1m.hostM.ipv4.ip packetDropNoRouteFound:count 0
attr interpolationmode none
attr source packetDropReasonIsNoRouteFound(packetDropped)
attr title "packet drop: no route found, count"
scalar Wireless_12_1m.hostM.ipv4.ip packetDropNoRouteFound:sum(packetBytes) 0
attr interpolationmode none
attr source packetDropReasonIsNoRouteFound(packetDropped)
attr title "packet drop: no route found, sum(packetBytes)"
scalar Wireless_12_1m.hostM.ipv4.ip packetDropUndefined:count 0
attr interpolationmode none
attr source packetDropReasonIsUndefined(packetDropped)
attr title "packet drop: undefined, count"
scalar Wireless_12_1m.hostM.ipv4.ip packetDropUndefined:sum(packetBytes) 0
attr interpolationmode none
attr source packetDropReasonIsUndefined(packetDropped)
attr title "packet drop: undefined, sum(packetBytes)"
scalar Wireless_12_1m.hostM.udp packetReceived:count 1
attr interpolationmode none
attr source packetReceived
attr title "packets received, count"
scalar Wireless_12_1m.hostM.udp packetReceived:sum(packetBytes) 12
attr interpolationmode none
attr source packetReceived
attr title "packets received, sum(packetBytes)"
scalar Wireless_12_1m.hostM.udp packetSent:count 1
attr interpolationmode none
attr source packetSent
attr title "packets sent, count"
scalar Wireless_12_1m.hostM.udp packetSent:sum(packetBytes) 12
attr interpolationmode none
attr source packetSent
attr title "packets sent, sum(packetBytes)"
scalar Wireless_12_1m.hostM.udp passedUpPk:count 1
attr interpolationmode none
attr source packetSentToUpper
attr title "packets passed up, count"
scalar Wireless_12_1m.hostM.udp droppedPkWrongPort:count 0
attr interpolationmode none
attr source packetDropReasonIsNoPortFound(packetDropped)
attr title "packets dropped (wrong port), count"
scalar Wireless_12_1m.hostM.udp droppedPkBadChecksum:count 0
attr interpolationmode none
attr source packetDropReasonIsIncorrectlyReceived(packetDropped)
attr title "packets dropped (checksum error), count"

