version 2
run Wireless01-0-20200623-19:06:18-15328
attr configname Wireless01
attr datetime 20200623-19:06:18
attr experiment Wireless01
attr inifile omnetpp.ini
attr iterationvars ""
attr iterationvarsf ""
attr measurement ""
attr network WirelessA
attr processid 15328
attr repetition 0
attr replication #0
attr resultdir results
attr runnumber 0
attr seedset 0
param *.host*.ipv4.arp.typename "\"GlobalArp\""
param *.hostA.numApps 1
param *.hostA.app[0].typename "\"TDOAApp\""
param *.hostA.app[0].destAddresses "\"Broadcast\""
param *.hostA.app[0].destPort 5000
param *.hostA.app[0].localPort 6000
param *.hostA.app[0].isReceiver false
param *.hostA.app[0].packetName "\"UDPData\""
param *.hostB.numApps 1
param *.hostB.app[0].typename "\"TDOAApp\""
param *.hostB.app[0].localPort 5000
param *.hostB.app[0].destPort 6000
param *.hostB.app[0].destAddresses "\"hostA\""
param *.hostB.app[0].isReceiver true
param *.hostC.numApps 1
param *.hostC.app[0].typename "\"TDOAApp\""
param *.hostC.app[0].localPort 5000
param *.hostC.app[0].destPort 6000
param *.hostC.app[0].destAddresses "\"hostA\""
param *.hostC.app[0].isReceiver true
param *.hostD.numApps 1
param *.hostD.app[0].typename "\"TDOAApp\""
param *.hostD.app[0].localPort 5000
param *.hostD.app[0].destPort 6000
param *.hostD.app[0].destAddresses "\"hostA\""
param *.hostD.app[0].isReceiver true
param *.host*.wlan[0].typename "\"WirelessInterface\""
param *.host*.wlan[0].radio.typename "\"UnitDiskRadio\""
param *.host*.wlan[0].mac.typename "\"CsmaCaMac\""
param *.host*.wlan[0].mac.ackTimeout 300us
param *.host*.wlan[0].mac.useAck true
param *.host*.wlan[0].mac.fullDuplex false
param *.host*.wlan[0].radio.transmitter.communicationRange 500m
param *.host*.wlan[0].radio.receiver.ignoreInterference true
param *.host*.wlan[0].mac.headerLength 23B
param **.ip.limitedBroadcast true
param *.host*.**.bitrate 1Mbps

vector 0 WirelessA.hostA.wlan[0].radio radioMode:vector ETV
attr interpolationmode sample-hold
attr source radioModeChanged
attr title "Radio mode, vector"
vector 1 WirelessA.hostB.wlan[0].radio radioMode:vector ETV
attr interpolationmode sample-hold
attr source radioModeChanged
attr title "Radio mode, vector"
vector 2 WirelessA.hostC.wlan[0].radio radioMode:vector ETV
attr interpolationmode sample-hold
attr source radioModeChanged
attr title "Radio mode, vector"
vector 3 WirelessA.hostD.wlan[0].radio radioMode:vector ETV
attr interpolationmode sample-hold
attr source radioModeChanged
attr title "Radio mode, vector"
vector 4 WirelessA.hostA.wlan[0].radio receptionState:vector ETV
attr interpolationmode sample-hold
attr source receptionStateChanged
attr title "Radio reception state, vector"
vector 5 WirelessA.hostB.wlan[0].radio receptionState:vector ETV
attr interpolationmode sample-hold
attr source receptionStateChanged
attr title "Radio reception state, vector"
vector 6 WirelessA.hostC.wlan[0].radio receptionState:vector ETV
attr interpolationmode sample-hold
attr source receptionStateChanged
attr title "Radio reception state, vector"
vector 7 WirelessA.hostD.wlan[0].radio receptionState:vector ETV
attr interpolationmode sample-hold
attr source receptionStateChanged
attr title "Radio reception state, vector"
vector 8 WirelessA.hostA.udp packetSent:vector(packetBytes) ETV
attr interpolationmode none
attr source packetSent
attr title "packets sent, vector(packetBytes)"
vector 9 WirelessA.hostA.lo[0].lo rcvdPkFromHl:vector(packetBytes) ETV
attr interpolationmode none
attr source packetReceivedFromUpper
attr title "packets received from higher layer, vector(packetBytes)"
vector 10 WirelessA.hostA.lo[0].lo passedUpPk:vector(packetBytes) ETV
attr interpolationmode none
attr source packetSentToUpper
attr title "packets passed to higher layer, vector(packetBytes)"
vector 11 WirelessA.hostA.wlan[0].mac.queue packetPushed:vector(packetBytes) ETV
attr interpolationmode none
attr title "packet pushed, vector(packetBytes)"
vector 12 WirelessA.hostA.wlan[0].mac.queue queueLength:vector ETV
attr interpolationmode sample-hold
attr source "count(packetPushed) - count(packetPopped) - count(packetRemoved) - count(packetDropped)"
attr title "queue length, vector"
vector 13 WirelessA.hostA.wlan[0].mac.queue packetPopped:vector(packetBytes) ETV
attr interpolationmode none
attr title "packet popped, vector(packetBytes)"
vector 14 WirelessA.hostA.wlan[0].mac.queue queueingTime:vector ETV
attr interpolationmode none
attr source queueingTime(packetPopped)
attr title "queueing times, vector"
attr unit s
vector 15 WirelessA.hostA.udp packetReceived:vector(packetBytes) ETV
attr interpolationmode none
attr source packetReceived
attr title "packets received, vector(packetBytes)"
vector 16 WirelessA.hostA.udp droppedPkWrongPort:vector(count) ETV
attr interpolationmode none
attr source packetDropReasonIsNoPortFound(packetDropped)
attr title "packets dropped (wrong port), vector(count)"
vector 17 WirelessA.hostA.wlan[0].radio transmissionState:vector ETV
attr interpolationmode sample-hold
attr source transmissionStateChanged
attr title "Radio transmission state, vector"
vector 18 WirelessA.hostD.udp packetReceived:vector(packetBytes) ETV
attr interpolationmode none
attr source packetReceived
attr title "packets received, vector(packetBytes)"
vector 19 WirelessA.hostD.udp passedUpPk:vector(count) ETV
attr interpolationmode none
attr source packetSentToUpper
attr title "packets passed up, vector(count)"
vector 20 WirelessA.hostD.udp packetSent:vector(packetBytes) ETV
attr interpolationmode none
attr source packetSent
attr title "packets sent, vector(packetBytes)"
vector 21 WirelessA.hostD.wlan[0].mac.queue packetPushed:vector(packetBytes) ETV
attr interpolationmode none
attr title "packet pushed, vector(packetBytes)"
vector 22 WirelessA.hostD.wlan[0].mac.queue queueLength:vector ETV
attr interpolationmode sample-hold
attr source "count(packetPushed) - count(packetPopped) - count(packetRemoved) - count(packetDropped)"
attr title "queue length, vector"
vector 23 WirelessA.hostD.wlan[0].mac.queue packetPopped:vector(packetBytes) ETV
attr interpolationmode none
attr title "packet popped, vector(packetBytes)"
vector 24 WirelessA.hostD.wlan[0].mac.queue queueingTime:vector ETV
attr interpolationmode none
attr source queueingTime(packetPopped)
attr title "queueing times, vector"
attr unit s
vector 25 WirelessA.hostB.udp packetReceived:vector(packetBytes) ETV
attr interpolationmode none
attr source packetReceived
attr title "packets received, vector(packetBytes)"
vector 26 WirelessA.hostB.udp passedUpPk:vector(count) ETV
attr interpolationmode none
attr source packetSentToUpper
attr title "packets passed up, vector(count)"
vector 27 WirelessA.hostB.udp packetSent:vector(packetBytes) ETV
attr interpolationmode none
attr source packetSent
attr title "packets sent, vector(packetBytes)"
vector 28 WirelessA.hostB.wlan[0].mac.queue packetPushed:vector(packetBytes) ETV
attr interpolationmode none
attr title "packet pushed, vector(packetBytes)"
vector 29 WirelessA.hostB.wlan[0].mac.queue queueLength:vector ETV
attr interpolationmode sample-hold
attr source "count(packetPushed) - count(packetPopped) - count(packetRemoved) - count(packetDropped)"
attr title "queue length, vector"
vector 30 WirelessA.hostB.wlan[0].mac.queue packetPopped:vector(packetBytes) ETV
attr interpolationmode none
attr title "packet popped, vector(packetBytes)"
vector 31 WirelessA.hostB.wlan[0].mac.queue queueingTime:vector ETV
attr interpolationmode none
attr source queueingTime(packetPopped)
attr title "queueing times, vector"
attr unit s
vector 32 WirelessA.hostC.udp packetReceived:vector(packetBytes) ETV
attr interpolationmode none
attr source packetReceived
attr title "packets received, vector(packetBytes)"
vector 33 WirelessA.hostC.udp passedUpPk:vector(count) ETV
attr interpolationmode none
attr source packetSentToUpper
attr title "packets passed up, vector(count)"
vector 34 WirelessA.hostC.udp packetSent:vector(packetBytes) ETV
attr interpolationmode none
attr source packetSent
attr title "packets sent, vector(packetBytes)"
vector 35 WirelessA.hostC.wlan[0].mac.queue packetPushed:vector(packetBytes) ETV
attr interpolationmode none
attr title "packet pushed, vector(packetBytes)"
vector 36 WirelessA.hostC.wlan[0].mac.queue queueLength:vector ETV
attr interpolationmode sample-hold
attr source "count(packetPushed) - count(packetPopped) - count(packetRemoved) - count(packetDropped)"
attr title "queue length, vector"
vector 37 WirelessA.hostC.wlan[0].mac.queue packetPopped:vector(packetBytes) ETV
attr interpolationmode none
attr title "packet popped, vector(packetBytes)"
vector 38 WirelessA.hostC.wlan[0].mac.queue queueingTime:vector ETV
attr interpolationmode none
attr source queueingTime(packetPopped)
attr title "queueing times, vector"
attr unit s
vector 39 WirelessA.hostC.wlan[0].radio transmissionState:vector ETV
attr interpolationmode sample-hold
attr source transmissionStateChanged
attr title "Radio transmission state, vector"
vector 40 WirelessA.hostD.wlan[0].mac packetDropNotAddressedToUs:vector(packetBytes) ETV
attr interpolationmode none
attr source packetDropReasonIsNotAddressedToUs(packetDropped)
attr title "packet drop: not addressed to us, vector(packetBytes)"
vector 41 WirelessA.hostA.udp passedUpPk:vector(count) ETV
attr interpolationmode none
attr source packetSentToUpper
attr title "packets passed up, vector(count)"
vector 42 WirelessA.hostB.wlan[0].mac packetDropNotAddressedToUs:vector(packetBytes) ETV
attr interpolationmode none
attr source packetDropReasonIsNotAddressedToUs(packetDropped)
attr title "packet drop: not addressed to us, vector(packetBytes)"
vector 43 WirelessA.hostD.wlan[0].radio transmissionState:vector ETV
attr interpolationmode sample-hold
attr source transmissionStateChanged
attr title "Radio transmission state, vector"
vector 44 WirelessA.hostC.wlan[0].mac packetDropNotAddressedToUs:vector(packetBytes) ETV
attr interpolationmode none
attr source packetDropReasonIsNotAddressedToUs(packetDropped)
attr title "packet drop: not addressed to us, vector(packetBytes)"
vector 45 WirelessA.hostB.wlan[0].radio transmissionState:vector ETV
attr interpolationmode sample-hold
attr source transmissionStateChanged
attr title "Radio transmission state, vector"
0	0	0	0
0	0	0	0
0	0	0	2
0	16	0.00051	3
0	21	0.001078	2
0	64	0.001726762856	3
0	69	0.001966762856	2
0	93	0.002815238456	3
0	98	0.003055238456	2
0	121	0.00396394246	3
0	126	0.00420394246	2
1	0	0	0
1	0	0	0
1	0	0	2
1	106	0.003385590458	3
1	111	0.003953590458	2
2	0	0	0
2	0	0	0
2	0	0	2
2	49	0.001148381428	3
2	54	0.001716381428	2
3	0	0	0
3	0	0	0
3	0	0	2
3	78	0.002237000656	3
3	83	0.002805000656	2
4	0	0	1
4	16	0.00051	0
4	21	0.001078	1
4	52	0.001148762856	3
4	57	0.001716762856	1
4	64	0.001726762856	0
4	69	0.001966762856	1
4	80	0.002237238456	3
4	84	0.002805238456	1
4	93	0.002815238456	0
4	98	0.003055238456	1
4	109	0.00338594246	3
4	114	0.00395394246	1
4	121	0.00396394246	0
4	126	0.00420394246	1
5	0	0	1
5	19	0.000510352002	3
5	30	0.001078352002	1
5	53	0.001149045477	3
5	62	0.001717045477	1
5	67	0.001727114858	3
5	72	0.001967114858	1
5	81	0.002237324314	3
5	89	0.002805324314	1
5	96	0.002815590458	3
5	101	0.003055590458	1
5	106	0.003385590458	0
5	111	0.003953590458	1
5	124	0.003964294462	3
5	129	0.004204294462	1
6	0	0	1
6	20	0.000510381428	3
6	38	0.001078381428	1
6	49	0.001148381428	0
6	54	0.001716381428	1
6	68	0.001727144284	3
6	74	0.001967144284	1
6	82	0.002237361178	3
6	91	0.002805361178	1
6	97	0.002815619884	3
6	103	0.003055619884	1
6	110	0.003386254507	3
6	119	0.003954254507	1
6	125	0.003964323888	3
6	131	0.004204323888	1
7	0	0	1
7	18	0.0005102378	3
7	22	0.0010782378	1
7	51	0.00114874195	3
7	55	0.00171674195	1
7	66	0.001727000656	3
7	70	0.001967000656	1
7	78	0.002237000656	0
7	83	0.002805000656	1
7	95	0.002815476256	3
7	99	0.003055476256	1
7	108	0.003385914116	3
7	112	0.003953914116	1
7	123	0.00396418026	3
7	127	0.00420418026	1
8	3	0	12
9	11	0	32
10	11	0	32
11	12	0	59
12	12	0	1
12	12	0	0
13	12	0	59
14	12	0	0
15	14	0	12
15	60	0.001716762856	12
15	87	0.002805238456	12
15	117	0.00395394246	12
16	14	0	1
17	16	0.00051	1
17	17	0.00051	2
17	21	0.001078	1
17	21	0.001078	0
17	64	0.001726762856	1
17	65	0.001726762856	2
17	69	0.001966762856	1
17	69	0.001966762856	0
17	93	0.002815238456	1
17	94	0.002815238456	2
17	98	0.003055238456	1
17	98	0.003055238456	0
17	121	0.00396394246	1
17	122	0.00396394246	2
17	126	0.00420394246	1
17	126	0.00420394246	0
18	25	0.0010782378	12
19	25	0.0010782378	1
20	27	0.0010782378	12
21	29	0.0010782378	59
22	29	0.0010782378	1
22	29	0.0010782378	0
23	29	0.0010782378	59
24	29	0.0010782378	0
25	33	0.001078352002	12
26	33	0.001078352002	1
27	35	0.001078352002	12
28	37	0.001078352002	59
29	37	0.001078352002	1
29	37	0.001078352002	0
30	37	0.001078352002	59
31	37	0.001078352002	0
32	41	0.001078381428	12
33	41	0.001078381428	1
34	43	0.001078381428	12
35	45	0.001078381428	59
36	45	0.001078381428	1
36	45	0.001078381428	0
37	45	0.001078381428	59
38	45	0.001078381428	0
39	49	0.001148381428	1
39	50	0.001148381428	2
39	54	0.001716381428	1
39	54	0.001716381428	0
40	56	0.00171674195	59
40	113	0.003953914116	59
41	60	0.001716762856	1
41	87	0.002805238456	2
41	117	0.00395394246	3
42	63	0.001717045477	59
42	90	0.002805324314	59
43	78	0.002237000656	1
43	79	0.002237000656	2
43	83	0.002805000656	1
43	83	0.002805000656	0
44	92	0.002805361178	59
44	120	0.003954254507	59
45	106	0.003385590458	1
45	107	0.003385590458	2
45	111	0.003953590458	1
45	111	0.003953590458	0

