version 2
run Wireless01-0-20200528-02:59:48-4462
attr configname Wireless01
attr datetime 20200528-02:59:48
attr experiment Wireless01
attr inifile omnetpp.ini
attr iterationvars ""
attr iterationvarsf ""
attr measurement ""
attr network WirelessA
attr processid 4462
attr repetition 0
attr replication #0
attr resultdir results
attr runnumber 0
attr seedset 0
param *.host*.ipv4.arp.typename "\"GlobalArp\""
param *.hostA.numApps 1
param *.hostA.app[0].typename "\"TDOAApp\""
param *.hostA.app[0].destAddresses "\"hostB\""
param *.hostA.app[0].destPort 5000
param *.hostA.app[0].localPort 6000
param *.hostA.app[0].isReceiver false
param *.hostA.app[0].packetName "\"UDPData\""
param *.hostB.numApps 1
param *.hostB.app[0].typename "\"TDOAApp\""
param *.hostB.app[0].localPort 5000
param *.hostB.app[0].destPort 6000
param *.host*.wlan[0].typename "\"AckingWirelessInterface\""
param *.host*.wlan[0].mac.useAck false
param *.host*.wlan[0].mac.fullDuplex false
param *.host*.wlan[0].radio.transmitter.communicationRange 500m
param *.host*.wlan[0].radio.receiver.ignoreInterference true
param *.host*.wlan[0].mac.headerLength 23B
param *.host*.**.bitrate 1Mbps

vector 0 WirelessA.hostA.wlan[0].radio radioMode:vector ETV
attr interpolationmode sample-hold
attr source radioModeChanged
attr title "Radio mode, vector"
vector 1 WirelessA.hostB.wlan[0].radio radioMode:vector ETV
attr interpolationmode sample-hold
attr source radioModeChanged
attr title "Radio mode, vector"
vector 2 WirelessA.hostA.wlan[0].radio receptionState:vector ETV
attr interpolationmode sample-hold
attr source receptionStateChanged
attr title "Radio reception state, vector"
vector 3 WirelessA.hostB.wlan[0].radio receptionState:vector ETV
attr interpolationmode sample-hold
attr source receptionStateChanged
attr title "Radio reception state, vector"
vector 4 WirelessA.hostA.udp packetSent:vector(packetBytes) ETV
attr interpolationmode none
attr source packetSent
attr title "packets sent, vector(packetBytes)"
vector 5 WirelessA.hostA.wlan[0].mac rcvdPkFromHl:vector(packetBytes) ETV
attr interpolationmode none
attr source packetReceivedFromUpper
attr title "packets received from higher layer, vector(packetBytes)"
vector 6 WirelessA.hostA.wlan[0].mac.queue packetPushed:vector(packetBytes) ETV
attr interpolationmode none
attr title "packet pushed, vector(packetBytes)"
vector 7 WirelessA.hostA.wlan[0].mac.queue queueLength:vector ETV
attr interpolationmode sample-hold
attr source "count(packetPushed) - count(packetPopped) - count(packetRemoved) - count(packetDropped)"
attr title "queue length, vector"
vector 8 WirelessA.hostA.wlan[0].mac.queue packetPopped:vector(packetBytes) ETV
attr interpolationmode none
attr title "packet popped, vector(packetBytes)"
vector 9 WirelessA.hostA.wlan[0].mac.queue queueingTime:vector ETV
attr interpolationmode none
attr source queueingTime(packetPopped)
attr title "queueing times, vector"
attr unit s
vector 10 WirelessA.hostA.wlan[0].radio transmissionState:vector ETV
attr interpolationmode sample-hold
attr source transmissionStateChanged
attr title "Radio transmission state, vector"
vector 11 WirelessA.hostA.wlan[0].mac sentDownPk:vector(packetBytes) ETV
attr interpolationmode none
attr source packetSentToLower
attr title "packets sent to lower layer, vector(packetBytes)"
vector 12 WirelessA.hostB.wlan[0].mac rcvdPkFromLl:vector(packetBytes) ETV
attr interpolationmode none
attr source packetReceivedFromLower
attr title "packets received from lower layer, vector(packetBytes)"
vector 13 WirelessA.hostB.wlan[0].mac passedUpPk:vector(packetBytes) ETV
attr interpolationmode none
attr source packetSentToUpper
attr title "packets passed to higher layer, vector(packetBytes)"
vector 14 WirelessA.hostB.udp packetReceived:vector(packetBytes) ETV
attr interpolationmode none
attr source packetReceived
attr title "packets received, vector(packetBytes)"
vector 15 WirelessA.hostB.udp passedUpPk:vector(count) ETV
attr interpolationmode none
attr source packetSentToUpper
attr title "packets passed up, vector(count)"
vector 16 WirelessA.hostB.udp packetSent:vector(packetBytes) ETV
attr interpolationmode none
attr source packetSent
attr title "packets sent, vector(packetBytes)"
vector 17 WirelessA.hostB.wlan[0].mac rcvdPkFromHl:vector(packetBytes) ETV
attr interpolationmode none
attr source packetReceivedFromUpper
attr title "packets received from higher layer, vector(packetBytes)"
vector 18 WirelessA.hostB.wlan[0].mac.queue packetPushed:vector(packetBytes) ETV
attr interpolationmode none
attr title "packet pushed, vector(packetBytes)"
vector 19 WirelessA.hostB.wlan[0].mac.queue queueLength:vector ETV
attr interpolationmode sample-hold
attr source "count(packetPushed) - count(packetPopped) - count(packetRemoved) - count(packetDropped)"
attr title "queue length, vector"
vector 20 WirelessA.hostB.wlan[0].mac.queue packetPopped:vector(packetBytes) ETV
attr interpolationmode none
attr title "packet popped, vector(packetBytes)"
vector 21 WirelessA.hostB.wlan[0].mac.queue queueingTime:vector ETV
attr interpolationmode none
attr source queueingTime(packetPopped)
attr title "queueing times, vector"
attr unit s
vector 22 WirelessA.hostB.wlan[0].radio transmissionState:vector ETV
attr interpolationmode sample-hold
attr source transmissionStateChanged
attr title "Radio transmission state, vector"
vector 23 WirelessA.hostB.wlan[0].mac sentDownPk:vector(packetBytes) ETV
attr interpolationmode none
attr source packetSentToLower
attr title "packets sent to lower layer, vector(packetBytes)"
vector 24 WirelessA.hostA.wlan[0].mac rcvdPkFromLl:vector(packetBytes) ETV
attr interpolationmode none
attr source packetReceivedFromLower
attr title "packets received from lower layer, vector(packetBytes)"
vector 25 WirelessA.hostA.wlan[0].mac passedUpPk:vector(packetBytes) ETV
attr interpolationmode none
attr source packetSentToUpper
attr title "packets passed to higher layer, vector(packetBytes)"
vector 26 WirelessA.hostA.udp packetReceived:vector(packetBytes) ETV
attr interpolationmode none
attr source packetReceived
attr title "packets received, vector(packetBytes)"
vector 27 WirelessA.hostA.udp passedUpPk:vector(count) ETV
attr interpolationmode none
attr source packetSentToUpper
attr title "packets passed up, vector(count)"
0	0	0	0
0	0	0	0
0	0	0	2
0	5	0	3
0	8	0.000536	2
1	0	0	0
1	0	0	0
1	0	0	2
1	16	0.000537334256	3
1	19	0.001073334256	2
2	0	0	1
2	5	0	0
2	8	0.000536	1
2	18	0.000538668512	3
2	20	0.001074668512	1
3	0	0	1
3	7	0.000001334256	3
3	9	0.000537334256	1
3	16	0.000537334256	0
3	19	0.001073334256	1
4	2	0	12
5	5	0	32
6	5	0	32
7	5	0	1
7	5	0	0
8	5	0	32
9	5	0	0
10	5	0	1
10	6	0	2
10	8	0.000536	1
10	8	0.000536	0
11	5	0	55
12	10	0.000537334256	55
13	10	0.000537334256	32
14	12	0.000537334256	12
15	12	0.000537334256	1
16	14	0.000537334256	12
17	16	0.000537334256	32
18	16	0.000537334256	32
19	16	0.000537334256	1
19	16	0.000537334256	0
20	16	0.000537334256	32
21	16	0.000537334256	0
22	16	0.000537334256	1
22	17	0.000537334256	2
22	19	0.001073334256	1
22	19	0.001073334256	0
23	16	0.000537334256	55
24	21	0.001074668512	55
25	21	0.001074668512	32
26	23	0.001074668512	12
27	23	0.001074668512	1

