version 2
run Wireless01-0-20200629-21:45:12-20664
attr configname Wireless01
attr datetime 20200629-21:45:12
attr experiment Wireless01
attr inifile omnetpp.ini
attr iterationvars ""
attr iterationvarsf ""
attr measurement ""
attr network WirelessA
attr processid 20664
attr repetition 0
attr replication #0
attr resultdir results
attr runnumber 0
attr seedset 0
param *.host*.ipv4.arp.typename "\"GlobalArp\""
param *.hostA.numApps 1
param *.hostA.app[0].typename "\"TDOAApp\""
param *.hostA.app[0].destAddresses "\"Broadcast\""
param *.hostA.app[0].destPort 5000
param *.hostA.app[0].localPort 6000
param *.hostA.app[0].isReceiver false
param *.hostA.app[0].packetName "\"UDPData\""
param *.hostB.numApps 1
param *.hostB.app[0].typename "\"TDOAApp\""
param *.hostB.app[0].localPort 5000
param *.hostB.app[0].destPort 6000
param *.hostB.app[0].destAddresses "\"hostA\""
param *.hostB.app[0].isReceiver true
param *.hostC.numApps 1
param *.hostC.app[0].typename "\"TDOAApp\""
param *.hostC.app[0].localPort 5000
param *.hostC.app[0].destPort 6000
param *.hostC.app[0].destAddresses "\"hostA\""
param *.hostC.app[0].isReceiver true
param *.hostD.numApps 1
param *.hostD.app[0].typename "\"TDOAApp\""
param *.hostD.app[0].localPort 5000
param *.hostD.app[0].destPort 6000
param *.hostD.app[0].destAddresses "\"hostA\""
param *.hostD.app[0].isReceiver true
param *.hostE.numApps 1
param *.hostE.app[0].typename "\"TDOAApp\""
param *.hostE.app[0].localPort 5000
param *.hostE.app[0].destPort 6000
param *.hostE.app[0].destAddresses "\"hostA\""
param *.hostE.app[0].isReceiver true
param *.hostF.numApps 1
param *.hostF.app[0].typename "\"TDOAApp\""
param *.hostF.app[0].localPort 5000
param *.hostF.app[0].destPort 6000
param *.hostF.app[0].destAddresses "\"hostA\""
param *.hostF.app[0].isReceiver true
param *.host*.wlan[0].typename "\"WirelessInterface\""
param *.radioMedium.typename "\"ApskScalarRadioMedium\""
param *.radioMedium.backgroundNoise.power -90dBm
param *.radioMedium.mediumLimitCache.centerFrequency 2GHz
param *.host*.wlan[0].radio.typename "\"ApskScalarRadio\""
param *.host*.wlan[0].radio.centerFrequency 2GHz
param *.host*.wlan[0].radio.bandwidth 2MHz
param *.host*.wlan[0].radio.transmitter.power 1.4mW
param *.host*.wlan[0].radio.transmitter.preambleDuration 10us
param *.host*.wlan[0].radio.transmitter.headerLength 8B
param *.host*.wlan[0].radio.receiver.sensitivity -85dBm
param *.host*.wlan[0].radio.receiver.energyDetection -85dBm
param *.host*.wlan[0].radio.receiver.snirThreshold 4dB
param *.host*.wlan[0].mac.typename "\"CsmaCaMac\""
param *.host*.wlan[0].mac.ackTimeout 300us
param *.host*.wlan[0].mac.useAck true
param *.host*.wlan[0].mac.fullDuplex false
param *.host*.wlan[0].radio.receiver.ignoreInterference true
param *.host*.wlan[0].mac.headerLength 23B
param **.ip.limitedBroadcast true
param *.host*.**.bitrate 1Mbps

vector 0 WirelessA.hostA.wlan[0].radio radioMode:vector ETV
attr interpolationmode sample-hold
attr source radioModeChanged
attr title "Radio mode, vector"
vector 1 WirelessA.hostB.wlan[0].radio radioMode:vector ETV
attr interpolationmode sample-hold
attr source radioModeChanged
attr title "Radio mode, vector"
vector 2 WirelessA.hostC.wlan[0].radio radioMode:vector ETV
attr interpolationmode sample-hold
attr source radioModeChanged
attr title "Radio mode, vector"
vector 3 WirelessA.hostD.wlan[0].radio radioMode:vector ETV
attr interpolationmode sample-hold
attr source radioModeChanged
attr title "Radio mode, vector"
vector 4 WirelessA.hostE.wlan[0].radio radioMode:vector ETV
attr interpolationmode sample-hold
attr source radioModeChanged
attr title "Radio mode, vector"
vector 5 WirelessA.hostF.wlan[0].radio radioMode:vector ETV
attr interpolationmode sample-hold
attr source radioModeChanged
attr title "Radio mode, vector"
vector 6 WirelessA.hostA.wlan[0].radio receptionState:vector ETV
attr interpolationmode sample-hold
attr source receptionStateChanged
attr title "Radio reception state, vector"
vector 7 WirelessA.hostB.wlan[0].radio receptionState:vector ETV
attr interpolationmode sample-hold
attr source receptionStateChanged
attr title "Radio reception state, vector"
vector 8 WirelessA.hostC.wlan[0].radio receptionState:vector ETV
attr interpolationmode sample-hold
attr source receptionStateChanged
attr title "Radio reception state, vector"
vector 9 WirelessA.hostD.wlan[0].radio receptionState:vector ETV
attr interpolationmode sample-hold
attr source receptionStateChanged
attr title "Radio reception state, vector"
vector 10 WirelessA.hostE.wlan[0].radio receptionState:vector ETV
attr interpolationmode sample-hold
attr source receptionStateChanged
attr title "Radio reception state, vector"
vector 11 WirelessA.hostF.wlan[0].radio receptionState:vector ETV
attr interpolationmode sample-hold
attr source receptionStateChanged
attr title "Radio reception state, vector"
vector 12 WirelessA.hostA.udp packetSent:vector(packetBytes) ETV
attr interpolationmode none
attr source packetSent
attr title "packets sent, vector(packetBytes)"
vector 13 WirelessA.hostA.lo[0].lo rcvdPkFromHl:vector(packetBytes) ETV
attr interpolationmode none
attr source packetReceivedFromUpper
attr title "packets received from higher layer, vector(packetBytes)"
vector 14 WirelessA.hostA.lo[0].lo passedUpPk:vector(packetBytes) ETV
attr interpolationmode none
attr source packetSentToUpper
attr title "packets passed to higher layer, vector(packetBytes)"
vector 15 WirelessA.hostA.wlan[0].mac.queue packetPushed:vector(packetBytes) ETV
attr interpolationmode none
attr title "packet pushed, vector(packetBytes)"
vector 16 WirelessA.hostA.wlan[0].mac.queue queueLength:vector ETV
attr interpolationmode sample-hold
attr source "count(packetPushed) - count(packetPopped) - count(packetRemoved) - count(packetDropped)"
attr title "queue length, vector"
vector 17 WirelessA.hostA.wlan[0].mac.queue packetPopped:vector(packetBytes) ETV
attr interpolationmode none
attr title "packet popped, vector(packetBytes)"
vector 18 WirelessA.hostA.wlan[0].mac.queue queueingTime:vector ETV
attr interpolationmode none
attr source queueingTime(packetPopped)
attr title "queueing times, vector"
attr unit s
vector 19 WirelessA.hostA.udp packetReceived:vector(packetBytes) ETV
attr interpolationmode none
attr source packetReceived
attr title "packets received, vector(packetBytes)"
vector 20 WirelessA.hostA.udp droppedPkWrongPort:vector(count) ETV
attr interpolationmode none
attr source packetDropReasonIsNoPortFound(packetDropped)
attr title "packets dropped (wrong port), vector(count)"
vector 21 WirelessA.hostA.wlan[0].radio transmissionState:vector ETV
attr interpolationmode sample-hold
attr source transmissionStateChanged
attr title "Radio transmission state, vector"
vector 22 WirelessA.hostF.udp packetReceived:vector(packetBytes) ETV
attr interpolationmode none
attr source packetReceived
attr title "packets received, vector(packetBytes)"
vector 23 WirelessA.hostF.udp passedUpPk:vector(count) ETV
attr interpolationmode none
attr source packetSentToUpper
attr title "packets passed up, vector(count)"
vector 24 WirelessA.hostF.udp packetSent:vector(packetBytes) ETV
attr interpolationmode none
attr source packetSent
attr title "packets sent, vector(packetBytes)"
vector 25 WirelessA.hostF.wlan[0].mac.queue packetPushed:vector(packetBytes) ETV
attr interpolationmode none
attr title "packet pushed, vector(packetBytes)"
vector 26 WirelessA.hostF.wlan[0].mac.queue queueLength:vector ETV
attr interpolationmode sample-hold
attr source "count(packetPushed) - count(packetPopped) - count(packetRemoved) - count(packetDropped)"
attr title "queue length, vector"
vector 27 WirelessA.hostF.wlan[0].mac.queue packetPopped:vector(packetBytes) ETV
attr interpolationmode none
attr title "packet popped, vector(packetBytes)"
vector 28 WirelessA.hostF.wlan[0].mac.queue queueingTime:vector ETV
attr interpolationmode none
attr source queueingTime(packetPopped)
attr title "queueing times, vector"
attr unit s
vector 29 WirelessA.hostE.udp packetReceived:vector(packetBytes) ETV
attr interpolationmode none
attr source packetReceived
attr title "packets received, vector(packetBytes)"
vector 30 WirelessA.hostE.udp passedUpPk:vector(count) ETV
attr interpolationmode none
attr source packetSentToUpper
attr title "packets passed up, vector(count)"
vector 31 WirelessA.hostE.udp packetSent:vector(packetBytes) ETV
attr interpolationmode none
attr source packetSent
attr title "packets sent, vector(packetBytes)"
vector 32 WirelessA.hostE.wlan[0].mac.queue packetPushed:vector(packetBytes) ETV
attr interpolationmode none
attr title "packet pushed, vector(packetBytes)"
vector 33 WirelessA.hostE.wlan[0].mac.queue queueLength:vector ETV
attr interpolationmode sample-hold
attr source "count(packetPushed) - count(packetPopped) - count(packetRemoved) - count(packetDropped)"
attr title "queue length, vector"
vector 34 WirelessA.hostE.wlan[0].mac.queue packetPopped:vector(packetBytes) ETV
attr interpolationmode none
attr title "packet popped, vector(packetBytes)"
vector 35 WirelessA.hostE.wlan[0].mac.queue queueingTime:vector ETV
attr interpolationmode none
attr source queueingTime(packetPopped)
attr title "queueing times, vector"
attr unit s
vector 36 WirelessA.hostB.udp packetReceived:vector(packetBytes) ETV
attr interpolationmode none
attr source packetReceived
attr title "packets received, vector(packetBytes)"
vector 37 WirelessA.hostB.udp passedUpPk:vector(count) ETV
attr interpolationmode none
attr source packetSentToUpper
attr title "packets passed up, vector(count)"
vector 38 WirelessA.hostB.udp packetSent:vector(packetBytes) ETV
attr interpolationmode none
attr source packetSent
attr title "packets sent, vector(packetBytes)"
vector 39 WirelessA.hostB.wlan[0].mac.queue packetPushed:vector(packetBytes) ETV
attr interpolationmode none
attr title "packet pushed, vector(packetBytes)"
vector 40 WirelessA.hostB.wlan[0].mac.queue queueLength:vector ETV
attr interpolationmode sample-hold
attr source "count(packetPushed) - count(packetPopped) - count(packetRemoved) - count(packetDropped)"
attr title "queue length, vector"
vector 41 WirelessA.hostB.wlan[0].mac.queue packetPopped:vector(packetBytes) ETV
attr interpolationmode none
attr title "packet popped, vector(packetBytes)"
vector 42 WirelessA.hostB.wlan[0].mac.queue queueingTime:vector ETV
attr interpolationmode none
attr source queueingTime(packetPopped)
attr title "queueing times, vector"
attr unit s
vector 43 WirelessA.hostC.udp packetReceived:vector(packetBytes) ETV
attr interpolationmode none
attr source packetReceived
attr title "packets received, vector(packetBytes)"
vector 44 WirelessA.hostC.udp passedUpPk:vector(count) ETV
attr interpolationmode none
attr source packetSentToUpper
attr title "packets passed up, vector(count)"
vector 45 WirelessA.hostC.udp packetSent:vector(packetBytes) ETV
attr interpolationmode none
attr source packetSent
attr title "packets sent, vector(packetBytes)"
vector 46 WirelessA.hostC.wlan[0].mac.queue packetPushed:vector(packetBytes) ETV
attr interpolationmode none
attr title "packet pushed, vector(packetBytes)"
vector 47 WirelessA.hostC.wlan[0].mac.queue queueLength:vector ETV
attr interpolationmode sample-hold
attr source "count(packetPushed) - count(packetPopped) - count(packetRemoved) - count(packetDropped)"
attr title "queue length, vector"
vector 48 WirelessA.hostC.wlan[0].mac.queue packetPopped:vector(packetBytes) ETV
attr interpolationmode none
attr title "packet popped, vector(packetBytes)"
vector 49 WirelessA.hostC.wlan[0].mac.queue queueingTime:vector ETV
attr interpolationmode none
attr source queueingTime(packetPopped)
attr title "queueing times, vector"
attr unit s
vector 50 WirelessA.hostD.udp packetReceived:vector(packetBytes) ETV
attr interpolationmode none
attr source packetReceived
attr title "packets received, vector(packetBytes)"
vector 51 WirelessA.hostD.udp passedUpPk:vector(count) ETV
attr interpolationmode none
attr source packetSentToUpper
attr title "packets passed up, vector(count)"
vector 52 WirelessA.hostD.udp packetSent:vector(packetBytes) ETV
attr interpolationmode none
attr source packetSent
attr title "packets sent, vector(packetBytes)"
vector 53 WirelessA.hostD.wlan[0].mac.queue packetPushed:vector(packetBytes) ETV
attr interpolationmode none
attr title "packet pushed, vector(packetBytes)"
vector 54 WirelessA.hostD.wlan[0].mac.queue queueLength:vector ETV
attr interpolationmode sample-hold
attr source "count(packetPushed) - count(packetPopped) - count(packetRemoved) - count(packetDropped)"
attr title "queue length, vector"
vector 55 WirelessA.hostD.wlan[0].mac.queue packetPopped:vector(packetBytes) ETV
attr interpolationmode none
attr title "packet popped, vector(packetBytes)"
vector 56 WirelessA.hostD.wlan[0].mac.queue queueingTime:vector ETV
attr interpolationmode none
attr source queueingTime(packetPopped)
attr title "queueing times, vector"
attr unit s
vector 57 WirelessA.hostE.wlan[0].radio transmissionState:vector ETV
attr interpolationmode sample-hold
attr source transmissionStateChanged
attr title "Radio transmission state, vector"
vector 58 WirelessA.hostA.udp passedUpPk:vector(count) ETV
attr interpolationmode none
attr source packetSentToUpper
attr title "packets passed up, vector(count)"
vector 59 WirelessA.hostF.wlan[0].mac packetDropNotAddressedToUs:vector(packetBytes) ETV
attr interpolationmode none
attr source packetDropReasonIsNotAddressedToUs(packetDropped)
attr title "packet drop: not addressed to us, vector(packetBytes)"
vector 60 WirelessA.hostD.wlan[0].mac packetDropNotAddressedToUs:vector(packetBytes) ETV
attr interpolationmode none
attr source packetDropReasonIsNotAddressedToUs(packetDropped)
attr title "packet drop: not addressed to us, vector(packetBytes)"
vector 61 WirelessA.hostC.wlan[0].mac packetDropNotAddressedToUs:vector(packetBytes) ETV
attr interpolationmode none
attr source packetDropReasonIsNotAddressedToUs(packetDropped)
attr title "packet drop: not addressed to us, vector(packetBytes)"
vector 62 WirelessA.hostB.wlan[0].mac packetDropNotAddressedToUs:vector(packetBytes) ETV
attr interpolationmode none
attr source packetDropReasonIsNotAddressedToUs(packetDropped)
attr title "packet drop: not addressed to us, vector(packetBytes)"
vector 63 WirelessA.hostB.wlan[0].radio transmissionState:vector ETV
attr interpolationmode sample-hold
attr source transmissionStateChanged
attr title "Radio transmission state, vector"
vector 64 WirelessA.hostE.wlan[0].mac packetDropNotAddressedToUs:vector(packetBytes) ETV
attr interpolationmode none
attr source packetDropReasonIsNotAddressedToUs(packetDropped)
attr title "packet drop: not addressed to us, vector(packetBytes)"
vector 65 WirelessA.hostF.wlan[0].radio transmissionState:vector ETV
attr interpolationmode sample-hold
attr source transmissionStateChanged
attr title "Radio transmission state, vector"
vector 66 WirelessA.hostD.wlan[0].radio transmissionState:vector ETV
attr interpolationmode sample-hold
attr source transmissionStateChanged
attr title "Radio transmission state, vector"
vector 67 WirelessA.hostC.wlan[0].radio transmissionState:vector ETV
attr interpolationmode sample-hold
attr source transmissionStateChanged
attr title "Radio transmission state, vector"
0	0	0	0
0	0	0	0
0	0	0	2
0	20	0.00007	3
0	27	0.000616	2
0	94	0.001382611944	3
0	101	0.001600611944	2
0	137	0.002227314984	3
0	144	0.002445314984	2
0	179	0.003131664666	3
0	186	0.003349664666	2
0	220	0.004076569926	3
0	227	0.004294569926	2
0	260	0.004921362922	3
0	267	0.005139362922	2
1	0	0	0
1	0	0	0
1	0	0	2
1	116	0.001670963464	3
1	123	0.002216963464	2
2	0	0	0
2	0	0	0
2	0	0	2
2	239	0.004364966424	3
2	246	0.004910966424	2
3	0	0	0
3	0	0	0
3	0	0	2
3	199	0.003520117296	3
3	206	0.004066117296	2
4	0	0	0
4	0	0	0
4	0	0	2
4	73	0.000826305972	3
4	80	0.001372305972	2
5	0	0	0
5	0	0	0
5	0	0	2
5	158	0.002575489825	3
5	165	0.003121489825	2
6	0	0	1
6	20	0.00007	0
6	27	0.000616	1
6	75	0.000826611944	3
6	81	0.001372611944	1
6	94	0.001382611944	0
6	101	0.001600611944	1
6	119	0.001671314984	3
6	126	0.002217314984	1
6	137	0.002227314984	0
6	144	0.002445314984	1
6	160	0.002575664666	3
6	166	0.003121664666	1
6	179	0.003131664666	0
6	186	0.003349664666	1
6	203	0.003520569926	3
6	211	0.004066569926	1
6	220	0.004076569926	0
6	227	0.004294569926	1
6	243	0.004365362922	3
6	251	0.004911362922	1
6	260	0.004921362922	0
6	267	0.005139362922	1
7	0	0	1
7	24	0.00007035152	3
7	44	0.00061635152	1
7	79	0.000826957891	3
7	92	0.001372957891	1
7	98	0.001382963464	3
7	106	0.001600963464	1
7	116	0.001670963464	0
7	123	0.002216963464	1
7	141	0.002227666504	3
7	149	0.002445666504	1
7	162	0.002575920964	3
7	173	0.003121920964	1
7	183	0.003132016186	3
7	191	0.003350016186	1
7	205	0.003520741241	3
7	218	0.004066741241	1
7	224	0.004076921446	3
7	232	0.004294921446	1
7	241	0.004365300295	3
7	247	0.004911300295	1
7	264	0.004921714442	3
7	272	0.005139714442	1
8	0	0	1
8	25	0.000070396498	3
8	52	0.000616396498	1
8	78	0.000826891992	3
8	90	0.001372891992	1
8	99	0.001383008442	3
8	108	0.001601008442	1
8	118	0.001671297335	3
8	124	0.002217297335	1
8	142	0.002227711482	3
8	151	0.002445711482	1
8	163	0.002576051907	3
8	175	0.003122051907	1
8	184	0.003132061164	3
8	193	0.003350061164	1
8	201	0.003520469298	3
8	207	0.004066469298	1
8	225	0.004076966424	3
8	234	0.004294966424	1
8	239	0.004364966424	0
8	246	0.004910966424	1
8	265	0.00492175942	3
8	274	0.00513975942	1
9	0	0	1
9	26	0.00007045263	3
9	60	0.00061645263	1
9	77	0.0008267268	3
9	88	0.0013727268	1
9	100	0.001383064574	3
9	110	0.001601064574	1
9	121	0.001671587409	3
9	133	0.002217587409	1
9	143	0.002227767614	3
9	153	0.002445767614	1
9	164	0.002576104405	3
9	177	0.003122104405	1
9	185	0.003132117296	3
9	195	0.003350117296	1
9	199	0.003520117296	0
9	206	0.004066117296	1
9	226	0.004077022556	3
9	236	0.004295022556	1
9	242	0.004365318426	3
9	249	0.004911318426	1
9	266	0.004921815552	3
9	276	0.005139815552	1
10	0	0	1
10	23	0.000070305972	3
10	36	0.000616305972	1
10	73	0.000826305972	0
10	80	0.001372305972	1
10	97	0.001382917916	3
10	104	0.001600917916	1
10	122	0.001671615383	3
10	135	0.002217615383	1
10	140	0.002227620956	3
10	147	0.002445620956	1
10	161	0.002575842228	3
10	171	0.003121842228	1
10	182	0.003131970638	3
10	189	0.003349970638	1
10	202	0.003520538124	3
10	209	0.004066538124	1
10	223	0.004076875898	3
10	230	0.004294875898	1
10	245	0.004365552444	3
10	258	0.004911552444	1
10	263	0.004921668894	3
10	270	0.005139668894	1
11	0	0	1
11	22	0.000070174841	3
11	28	0.000616174841	1
11	76	0.000826658375	3
11	86	0.001372658375	1
11	96	0.001382786785	3
11	102	0.001600786785	1
11	120	0.001671394603	3
11	131	0.002217394603	1
11	139	0.002227489825	3
11	145	0.002445489825	1
11	158	0.002575489825	0
11	165	0.003121489825	1
11	181	0.003131839507	3
11	187	0.003349839507	1
11	204	0.003520731876	3
11	216	0.004066731876	1
11	222	0.004076744767	3
11	228	0.004294744767	1
11	244	0.004365528506	3
11	256	0.004911528506	1
11	262	0.004921537763	3
11	268	0.005139537763	1
12	3	0	12
13	15	0	32
14	15	0	32
15	16	0	59
16	16	0	1
16	16	0	0
17	16	0	59
18	16	0	0
19	18	0	12
19	84	0.001372611944	12
19	129	0.002217314984	12
19	169	0.003121664666	12
19	214	0.004066569926	12
19	254	0.004911362922	12
20	18	0	1
21	20	0.00007	1
21	21	0.00007	2
21	27	0.000616	1
21	27	0.000616	0
21	94	0.001382611944	1
21	95	0.001382611944	2
21	101	0.001600611944	1
21	101	0.001600611944	0
21	137	0.002227314984	1
21	138	0.002227314984	2
21	144	0.002445314984	1
21	144	0.002445314984	0
21	179	0.003131664666	1
21	180	0.003131664666	2
21	186	0.003349664666	1
21	186	0.003349664666	0
21	220	0.004076569926	1
21	221	0.004076569926	2
21	227	0.004294569926	1
21	227	0.004294569926	0
21	260	0.004921362922	1
21	261	0.004921362922	2
21	267	0.005139362922	1
21	267	0.005139362922	0
22	31	0.000616174841	12
23	31	0.000616174841	1
24	33	0.000616174841	12
25	35	0.000616174841	59
26	35	0.000616174841	1
26	35	0.000616174841	0
27	35	0.000616174841	59
28	35	0.000616174841	0
29	39	0.000616305972	12
30	39	0.000616305972	1
31	41	0.000616305972	12
32	43	0.000616305972	59
33	43	0.000616305972	1
33	43	0.000616305972	0
34	43	0.000616305972	59
35	43	0.000616305972	0
36	47	0.00061635152	12
37	47	0.00061635152	1
38	49	0.00061635152	12
39	51	0.00061635152	59
40	51	0.00061635152	1
40	51	0.00061635152	0
41	51	0.00061635152	59
42	51	0.00061635152	0
43	55	0.000616396498	12
44	55	0.000616396498	1
45	57	0.000616396498	12
46	59	0.000616396498	59
47	59	0.000616396498	1
47	59	0.000616396498	0
48	59	0.000616396498	59
49	59	0.000616396498	0
50	63	0.00061645263	12
51	63	0.00061645263	1
52	65	0.00061645263	12
53	67	0.00061645263	59
54	67	0.00061645263	1
54	67	0.00061645263	0
55	67	0.00061645263	59
56	67	0.00061645263	0
57	73	0.000826305972	1
57	74	0.000826305972	2
57	80	0.001372305972	1
57	80	0.001372305972	0
58	84	0.001372611944	1
58	129	0.002217314984	2
58	169	0.003121664666	3
58	214	0.004066569926	4
58	254	0.004911362922	5
59	87	0.001372658375	59
59	132	0.002217394603	59
59	217	0.004066731876	59
59	257	0.004911528506	59
60	89	0.0013727268	59
60	134	0.002217587409	59
60	178	0.003122104405	59
60	250	0.004911318426	59
61	91	0.001372891992	59
61	125	0.002217297335	59
61	176	0.003122051907	59
61	208	0.004066469298	59
62	93	0.001372957891	59
62	174	0.003121920964	59
62	219	0.004066741241	59
62	248	0.004911300295	59
63	116	0.001670963464	1
63	117	0.001670963464	2
63	123	0.002216963464	1
63	123	0.002216963464	0
64	136	0.002217615383	59
64	172	0.003121842228	59
64	210	0.004066538124	59
64	259	0.004911552444	59
65	158	0.002575489825	1
65	159	0.002575489825	2
65	165	0.003121489825	1
65	165	0.003121489825	0
66	199	0.003520117296	1
66	200	0.003520117296	2
66	206	0.004066117296	1
66	206	0.004066117296	0
67	239	0.004364966424	1
67	240	0.004364966424	2
67	246	0.004910966424	1
67	246	0.004910966424	0

