file 10098 1591292186                                           
version 2
run WirelessA-0-20200604-14:36:09-10100
attr configname WirelessA
attr datetime 20200604-14:36:09
attr experiment WirelessA
attr inifile omnetpp.ini
attr iterationvars ""
attr iterationvarsf ""
attr measurement ""
attr network WirelessA
attr processid 10100
attr repetition 0
attr replication #0
attr resultdir results
attr runnumber 0
attr seedset 0
param *.host*.ipv4.arp.typename "\"GlobalArp\""
param *.hostA.numApps 1
param *.hostA.app[0].typename "\"UdpBasicApp\""
param **.hostA.apps[1].typename "\"PingApp\""
param *.hostA.app[0].destAddresses "\"hostB\""
param *.hostA.app[0].receiveBroadcast true
param *.hostA.app[0].joinLocalMulticastGroups true
param *.hostA.app[0].destPort 5000
param *.hostA.app[0].messageLength 1000B
param *.hostA.app[0].sendInterval exponential(12ms)
param *.hostA.app[0].packetName "\"UDPData\""
param *.hostB.numApps 1
param *.hostB.app[0].typename "\"UdpSink\""
param *.hostB.app[0].localPort 5000
param *.host*.wlan[0].typename "\"AckingWirelessInterface\""
param *.host*.wlan[0].mac.useAck false
param *.host*.wlan[0].mac.fullDuplex false
param *.host*.wlan[0].radio.transmitter.communicationRange 500m
param *.host*.wlan[0].radio.receiver.ignoreInterference true
param *.host*.wlan[0].mac.headerLength 23B
param *.host*.**.bitrate 1Mbps

vector 0 WirelessA.hostA.wlan[0].radio radioMode:vector ETV
attr interpolationmode sample-hold
attr source radioModeChanged
attr title "Radio mode, vector"
vector 1 WirelessA.hostB.wlan[0].radio radioMode:vector ETV
attr interpolationmode sample-hold
attr source radioModeChanged
attr title "Radio mode, vector"
vector 2 WirelessA.hostR1.wlan[0].radio radioMode:vector ETV
attr interpolationmode sample-hold
attr source radioModeChanged
attr title "Radio mode, vector"
vector 3 WirelessA.hostR2.wlan[0].radio radioMode:vector ETV
attr interpolationmode sample-hold
attr source radioModeChanged
attr title "Radio mode, vector"
vector 4 WirelessA.hostR3.wlan[0].radio radioMode:vector ETV
attr interpolationmode sample-hold
attr source radioModeChanged
attr title "Radio mode, vector"
vector 5 WirelessA.hostA.wlan[0].radio receptionState:vector ETV
attr interpolationmode sample-hold
attr source receptionStateChanged
attr title "Radio reception state, vector"
vector 6 WirelessA.hostB.wlan[0].radio receptionState:vector ETV
attr interpolationmode sample-hold
attr source receptionStateChanged
attr title "Radio reception state, vector"
vector 7 WirelessA.hostR1.wlan[0].radio receptionState:vector ETV
attr interpolationmode sample-hold
attr source receptionStateChanged
attr title "Radio reception state, vector"
vector 8 WirelessA.hostR2.wlan[0].radio receptionState:vector ETV
attr interpolationmode sample-hold
attr source receptionStateChanged
attr title "Radio reception state, vector"
vector 9 WirelessA.hostR3.wlan[0].radio receptionState:vector ETV
attr interpolationmode sample-hold
attr source receptionStateChanged
attr title "Radio reception state, vector"
vector 10 WirelessA.hostA.app[0] packetSent:vector(packetBytes) ETV
attr interpolationmode none
attr source packetSent
attr title "packets sent, vector(packetBytes)"
vector 11 WirelessA.hostA.udp packetSent:vector(packetBytes) ETV
attr interpolationmode none
attr source packetSent
attr title "packets sent, vector(packetBytes)"
vector 12 WirelessA.hostA.wlan[0].mac rcvdPkFromHl:vector(packetBytes) ETV
attr interpolationmode none
attr source packetReceivedFromUpper
attr title "packets received from higher layer, vector(packetBytes)"
vector 13 WirelessA.hostA.wlan[0].mac.queue packetPushed:vector(packetBytes) ETV
attr interpolationmode none
attr title "packet pushed, vector(packetBytes)"
vector 14 WirelessA.hostA.wlan[0].mac.queue queueLength:vector ETV
attr interpolationmode sample-hold
attr source "count(packetPushed) - count(packetPopped) - count(packetRemoved) - count(packetDropped)"
attr title "queue length, vector"
vector 15 WirelessA.hostA.wlan[0].mac.queue packetPopped:vector(packetBytes) ETV
attr interpolationmode none
attr title "packet popped, vector(packetBytes)"
vector 16 WirelessA.hostA.wlan[0].mac.queue queueingTime:vector ETV
attr interpolationmode none
attr source queueingTime(packetPopped)
attr title "queueing times, vector"
attr unit s
vector 17 WirelessA.hostA.wlan[0].radio transmissionState:vector ETV
attr interpolationmode sample-hold
attr source transmissionStateChanged
attr title "Radio transmission state, vector"
vector 18 WirelessA.hostA.wlan[0].mac sentDownPk:vector(packetBytes) ETV
attr interpolationmode none
attr source packetSentToLower
attr title "packets sent to lower layer, vector(packetBytes)"
vector 19 WirelessA.hostB.wlan[0].mac rcvdPkFromLl:vector(packetBytes) ETV
attr interpolationmode none
attr source packetReceivedFromLower
attr title "packets received from lower layer, vector(packetBytes)"
vector 20 WirelessA.hostB.wlan[0].mac passedUpPk:vector(packetBytes) ETV
attr interpolationmode none
attr source packetSentToUpper
attr title "packets passed to higher layer, vector(packetBytes)"
vector 21 WirelessA.hostB.udp packetReceived:vector(packetBytes) ETV
attr interpolationmode none
attr source packetReceived
attr title "packets received, vector(packetBytes)"
vector 22 WirelessA.hostB.udp passedUpPk:vector(count) ETV
attr interpolationmode none
attr source packetSentToUpper
attr title "packets passed up, vector(count)"
vector 23 WirelessA.hostB.app[0] packetReceived:vector(packetBytes) ETV
attr interpolationmode none
attr source packetReceived
attr title "packets received, vector(packetBytes)"
vector 24 WirelessA.hostB.app[0] endToEndDelay:vector ETV
attr interpolationmode none
attr source dataAge(packetReceived)
attr title "end-to-end delay, vector"
attr unit s
vector 25 WirelessA.hostB.app[0] rcvdPkSeqNo:vector ETV
attr interpolationmode none
attr source appPkSeqNo(packetReceived)
attr title "received packet sequence number, vector"
vector 26 WirelessA.hostR2.wlan[0].mac rcvdPkFromLl:vector(packetBytes) ETV
attr interpolationmode none
attr source packetReceivedFromLower
attr title "packets received from lower layer, vector(packetBytes)"
vector 27 WirelessA.hostR2.wlan[0].mac packetDropNotAddressedToUs:vector(packetBytes) ETV
attr interpolationmode none
attr source packetDropReasonIsNotAddressedToUs(packetDropped)
attr title "packet drop: not addressed to us, vector(packetBytes)"
vector 28 WirelessA.hostR1.wlan[0].mac rcvdPkFromLl:vector(packetBytes) ETV
attr interpolationmode none
attr source packetReceivedFromLower
attr title "packets received from lower layer, vector(packetBytes)"
vector 29 WirelessA.hostR1.wlan[0].mac packetDropNotAddressedToUs:vector(packetBytes) ETV
attr interpolationmode none
attr source packetDropReasonIsNotAddressedToUs(packetDropped)
attr title "packet drop: not addressed to us, vector(packetBytes)"
vector 30 WirelessA.hostR3.wlan[0].mac rcvdPkFromLl:vector(packetBytes) ETV
attr interpolationmode none
attr source packetReceivedFromLower
attr title "packets received from lower layer, vector(packetBytes)"
vector 31 WirelessA.hostR3.wlan[0].mac packetDropNotAddressedToUs:vector(packetBytes) ETV
attr interpolationmode none
attr source packetDropReasonIsNotAddressedToUs(packetDropped)
attr title "packet drop: not addressed to us, vector(packetBytes)"
0	7244 156 0 59 0 0.047827250545 9 0 3 17 43
1	7400 24 0 0 0 0 3 0 2 2 4
2	7424 24 0 0 0 0 3 0 2 2 4
3	7448 24 0 0 0 0 3 0 2 2 4
4	7472 24 0 0 0 0 3 0 2 2 4
5	7496 140 0 59 0 0.047827250545 7 0 1 4 4
6	7636 118 0 44 0 0.039323263888 6 1 3 14 36
7	7754 118 0 54 0 0.039323283901 6 1 3 14 36
8	7872 113 0 50 0 0.03932327723 6 1 3 14 36
9	7985 118 0 55 0 0.039323283901 6 1 3 14 36
10	8103 77 4 37 0.022315250545 0.033928880414 3 1000 1000 3000 3000000
11	8180 77 8 38 0.022315250545 0.033928880414 3 1008 1008 3024 3048192
12	8257 78 10 40 0.022315250545 0.033928880414 3 1028 1028 3084 3170352
13	8335 78 10 40 0.022315250545 0.033928880414 3 1028 1028 3084 3170352
14	8413 138 10 41 0.022315250545 0.039323250545 6 0 1 3 3
15	8551 78 10 41 0.022315250545 0.039323250545 3 1028 1028 3084 3170352
16	8629 94 10 41 0.022315250545 0.039323250545 3 0 0.005394370131 0.010078096441 5.1036521257211e-05
17	8723 276 10 59 0.022315250545 0.047827250545 12 0 2 12 18
18	8999 78 10 41 0.022315250545 0.039323250545 3 1051 1051 3153 3313803
19	9077 52 24 45 0.030819263888 0.039323263888 2 1051 1051 2102 2209202
20	9129 52 24 45 0.030819263888 0.039323263888 2 1028 1028 2056 2113568
21	9181 52 26 47 0.030819263888 0.039323263888 2 1008 1008 2016 2032128
22	9233 46 26 47 0.030819263888 0.039323263888 2 1 2 3 5
23	9279 52 27 48 0.030819263888 0.039323263888 2 1000 1000 2000 2000000
24	9331 72 27 48 0.030819263888 0.039323263888 2 0.008504013343 0.013187739653 0.021691752996 0.00024623472009323
25	9403 46 27 48 0.030819263888 0.039323263888 2 0 1 1 1
26	9449 50 30 51 0.03081927723 0.03932327723 2 1051 1051 2102 2209202
27	9499 50 30 51 0.03081927723 0.03932327723 2 1051 1051 2102 2209202
28	9549 52 35 56 0.030819283901 0.039323283901 2 1051 1051 2102 2209202
29	9601 52 35 56 0.030819283901 0.039323283901 2 1051 1051 2102 2209202
30	9653 52 36 57 0.030819283901 0.039323283901 2 1051 1051 2102 2209202
31	9705 52 36 57 0.030819283901 0.039323283901 2 1051 1051 2102 2209202
vector 32 WirelessA.hostA.app[0] throughput:vector ETV
attr source throughput(packetReceived)
attr title "throughput, vector"
attr unit bps
vector 33 WirelessA.hostB.app[0] throughput:vector ETV
attr source throughput(packetReceived)
attr title "throughput, vector"
attr unit bps
32	10037 23 59 59 0.047827256271 0.047827256271 1 0 0 0 0
33	10060 37 59 59 0.047827256271 0.047827256271 1 334537.27534234 334537.27534234 334537.27534234 111915188593.47

