file 10673 1588521864                                           
version 2
run WirelessA-0-20200503-13:02:35-1492
attr configname WirelessA
attr datetime 20200503-13:02:35
attr experiment WirelessA
attr inifile omnetpp.ini
attr iterationvars ""
attr iterationvarsf ""
attr measurement ""
attr network WirelessA
attr processid 1492
attr repetition 0
attr replication #0
attr resultdir results
attr runnumber 0
attr seedset 0
param *.host*.ipv4.arp.typename "\"GlobalArp\""
param *.hostA.numApps 1
param *.hostA.app[0].typename "\"UdpBasicApp\""
param **.hostA.apps[1].typename "\"PingApp\""
param *.hostA.app[0].destAddresses "\"hostB\""
param *.hostA.app[0].destPort 5000
param *.hostA.app[0].messageLength 1000B
param *.hostA.app[0].sendInterval exponential(12ms)
param *.hostA.app[0].packetName "\"UDPData\""
param *.hostB.numApps 1
param *.hostB.app[0].typename "\"UdpSink\""
param *.hostB.app[0].localPort 5000
param *.host*.wlan[0].typename "\"AckingWirelessInterface\""
param *.host*.wlan[0].mac.useAck false
param *.host*.wlan[0].mac.fullDuplex false
param *.host*.wlan[0].radio.transmitter.communicationRange 500m
param *.host*.wlan[0].radio.receiver.ignoreInterference true
param *.host*.wlan[0].mac.headerLength 23B
param *.host*.**.bitrate 1Mbps

vector 0 WirelessA.hostA.wlan[0].radio radioMode:vector ETV
attr interpolationmode sample-hold
attr source radioModeChanged
attr title "Radio mode, vector"
vector 1 WirelessA.hostB.wlan[0].radio radioMode:vector ETV
attr interpolationmode sample-hold
attr source radioModeChanged
attr title "Radio mode, vector"
vector 2 WirelessA.hostR1.wlan[0].radio radioMode:vector ETV
attr interpolationmode sample-hold
attr source radioModeChanged
attr title "Radio mode, vector"
vector 3 WirelessA.hostR2.wlan[0].radio radioMode:vector ETV
attr interpolationmode sample-hold
attr source radioModeChanged
attr title "Radio mode, vector"
vector 4 WirelessA.hostR3.wlan[0].radio radioMode:vector ETV
attr interpolationmode sample-hold
attr source radioModeChanged
attr title "Radio mode, vector"
vector 5 WirelessA.hostA.wlan[0].radio receptionState:vector ETV
attr interpolationmode sample-hold
attr source receptionStateChanged
attr title "Radio reception state, vector"
vector 6 WirelessA.hostB.wlan[0].radio receptionState:vector ETV
attr interpolationmode sample-hold
attr source receptionStateChanged
attr title "Radio reception state, vector"
vector 7 WirelessA.hostR1.wlan[0].radio receptionState:vector ETV
attr interpolationmode sample-hold
attr source receptionStateChanged
attr title "Radio reception state, vector"
vector 8 WirelessA.hostR2.wlan[0].radio receptionState:vector ETV
attr interpolationmode sample-hold
attr source receptionStateChanged
attr title "Radio reception state, vector"
vector 9 WirelessA.hostR3.wlan[0].radio receptionState:vector ETV
attr interpolationmode sample-hold
attr source receptionStateChanged
attr title "Radio reception state, vector"
vector 10 WirelessA.hostA.app[0] packetSent:vector(packetBytes) ETV
attr interpolationmode none
attr source packetSent
attr title "packets sent, vector(packetBytes)"
vector 11 WirelessA.hostA.udp packetSent:vector(packetBytes) ETV
attr interpolationmode none
attr source packetSent
attr title "packets sent, vector(packetBytes)"
vector 12 WirelessA.hostA.wlan[0].mac rcvdPkFromHl:vector(packetBytes) ETV
attr interpolationmode none
attr source packetReceivedFromUpper
attr title "packets received from higher layer, vector(packetBytes)"
vector 13 WirelessA.hostA.wlan[0].mac.queue packetPushed:vector(packetBytes) ETV
attr interpolationmode none
attr title "packet pushed, vector(packetBytes)"
vector 14 WirelessA.hostA.wlan[0].mac.queue queueLength:vector ETV
attr interpolationmode sample-hold
attr source "count(packetPushed) - count(packetPopped) - count(packetRemoved) - count(packetDropped)"
attr title "queue length, vector"
vector 15 WirelessA.hostA.wlan[0].mac.queue packetPopped:vector(packetBytes) ETV
attr interpolationmode none
attr title "packet popped, vector(packetBytes)"
vector 16 WirelessA.hostA.wlan[0].mac.queue queueingTime:vector ETV
attr interpolationmode none
attr source queueingTime(packetPopped)
attr title "queueing times, vector"
attr unit s
vector 17 WirelessA.hostA.wlan[0].radio transmissionState:vector ETV
attr interpolationmode sample-hold
attr source transmissionStateChanged
attr title "Radio transmission state, vector"
vector 18 WirelessA.hostA.wlan[0].mac sentDownPk:vector(packetBytes) ETV
attr interpolationmode none
attr source packetSentToLower
attr title "packets sent to lower layer, vector(packetBytes)"
vector 19 WirelessA.hostB.wlan[0].mac rcvdPkFromLl:vector(packetBytes) ETV
attr interpolationmode none
attr source packetReceivedFromLower
attr title "packets received from lower layer, vector(packetBytes)"
vector 20 WirelessA.hostB.wlan[0].mac passedUpPk:vector(packetBytes) ETV
attr interpolationmode none
attr source packetSentToUpper
attr title "packets passed to higher layer, vector(packetBytes)"
vector 21 WirelessA.hostB.udp packetReceived:vector(packetBytes) ETV
attr interpolationmode none
attr source packetReceived
attr title "packets received, vector(packetBytes)"
vector 22 WirelessA.hostB.udp passedUpPk:vector(count) ETV
attr interpolationmode none
attr source packetSentToUpper
attr title "packets passed up, vector(count)"
vector 23 WirelessA.hostB.app[0] packetReceived:vector(packetBytes) ETV
attr interpolationmode none
attr source packetReceived
attr title "packets received, vector(packetBytes)"
vector 24 WirelessA.hostB.app[0] endToEndDelay:vector ETV
attr interpolationmode none
attr source dataAge(packetReceived)
attr title "end-to-end delay, vector"
attr unit s
vector 25 WirelessA.hostB.app[0] rcvdPkSeqNo:vector ETV
attr interpolationmode none
attr source appPkSeqNo(packetReceived)
attr title "received packet sequence number, vector"
vector 26 WirelessA.hostR2.wlan[0].mac rcvdPkFromLl:vector(packetBytes) ETV
attr interpolationmode none
attr source packetReceivedFromLower
attr title "packets received from lower layer, vector(packetBytes)"
vector 27 WirelessA.hostR2.wlan[0].mac packetDropNotAddressedToUs:vector(packetBytes) ETV
attr interpolationmode none
attr source packetDropReasonIsNotAddressedToUs(packetDropped)
attr title "packet drop: not addressed to us, vector(packetBytes)"
vector 28 WirelessA.hostR1.wlan[0].mac rcvdPkFromLl:vector(packetBytes) ETV
attr interpolationmode none
attr source packetReceivedFromLower
attr title "packets received from lower layer, vector(packetBytes)"
vector 29 WirelessA.hostR1.wlan[0].mac packetDropNotAddressedToUs:vector(packetBytes) ETV
attr interpolationmode none
attr source packetDropReasonIsNotAddressedToUs(packetDropped)
attr title "packet drop: not addressed to us, vector(packetBytes)"
vector 30 WirelessA.hostR3.wlan[0].mac rcvdPkFromLl:vector(packetBytes) ETV
attr interpolationmode none
attr source packetReceivedFromLower
attr title "packets received from lower layer, vector(packetBytes)"
vector 31 WirelessA.hostR3.wlan[0].mac packetDropNotAddressedToUs:vector(packetBytes) ETV
attr interpolationmode none
attr source packetDropReasonIsNotAddressedToUs(packetDropped)
attr title "packet drop: not addressed to us, vector(packetBytes)"
0	7312 164 0 57 0 0.047827250545 9 0 3 17 43
1	7476 27 0 0 0 0 3 0 2 2 4
2	7503 27 0 0 0 0 3 0 2 2 4
3	7530 27 0 0 0 0 3 0 2 2 4
4	7557 27 0 0 0 0 3 0 2 2 4
5	7584 146 0 57 0 0.047827250545 7 0 1 4 4
6	7730 147 0 58 0 0.047827263888 7 1 3 15 37
7	7877 147 0 65 0 0.047827283901 7 1 3 15 37
8	8024 141 0 63 0 0.04782727723 7 1 3 15 37
9	8165 147 0 66 0 0.047827283901 7 1 3 15 37
10	8312 80 4 35 0.022315250545 0.033928880414 3 1000 1000 3000 3000000
11	8392 80 6 36 0.022315250545 0.033928880414 3 1008 1008 3024 3048192
12	8472 80 8 38 0.022315250545 0.033928880414 3 1028 1028 3084 3170352
13	8552 80 8 38 0.022315250545 0.033928880414 3 1028 1028 3084 3170352
14	8632 142 8 39 0.022315250545 0.039323250545 6 0 1 3 3
15	8774 80 8 39 0.022315250545 0.039323250545 3 1028 1028 3084 3170352
16	8854 96 8 39 0.022315250545 0.039323250545 3 0 0.005394370131 0.010078096441 5.1036521257211e-005
17	8950 286 8 57 0.022315250545 0.047827250545 12 0 2 12 18
18	9236 80 8 39 0.022315250545 0.039323250545 3 1051 1051 3153 3313803
19	9316 81 22 59 0.030819263888 0.047827263888 3 1051 1051 3153 3313803
20	9397 81 22 59 0.030819263888 0.047827263888 3 1028 1028 3084 3170352
21	9478 81 24 61 0.030819263888 0.047827263888 3 1008 1008 3024 3048192
22	9559 72 24 61 0.030819263888 0.047827263888 3 1 3 6 14
23	9631 81 25 62 0.030819263888 0.047827263888 3 1000 1000 3000 3000000
24	9712 111 25 62 0.030819263888 0.047827263888 3 0.008504013343 0.013898383474 0.03559013647 0.00043939978328359
25	9823 72 25 62 0.030819263888 0.047827263888 3 0 2 3 5
26	9895 78 28 64 0.03081927723 0.04782727723 3 1051 1051 3153 3313803
27	9973 78 28 64 0.03081927723 0.04782727723 3 1051 1051 3153 3313803
28	10051 81 33 67 0.030819283901 0.047827283901 3 1051 1051 3153 3313803
29	10132 81 33 67 0.030819283901 0.047827283901 3 1051 1051 3153 3313803
30	10213 54 34 55 0.030819283901 0.039323283901 2 1051 1051 2102 2209202
31	10267 54 34 55 0.030819283901 0.039323283901 2 1051 1051 2102 2209202
vector 32 WirelessA.hostA.app[0] throughput:vector ETV
attr source throughput(packetReceived)
attr title "throughput, vector"
attr unit bps
vector 33 WirelessA.hostB.app[0] throughput:vector ETV
attr source throughput(packetReceived)
attr title "throughput, vector"
attr unit bps
32	10609 24 67 67 0.047827283901 0.047827283901 1 0 0 0 0
33	10633 38 67 67 0.047827283901 0.047827283901 1 501805.62311836 501805.62311836 501805.62311836 251808883393.21

