version 2
run WirelessA-0-20200503-13:02:35-1492
attr configname WirelessA
attr datetime 20200503-13:02:35
attr experiment WirelessA
attr inifile omnetpp.ini
attr iterationvars ""
attr iterationvarsf ""
attr measurement ""
attr network WirelessA
attr processid 1492
attr repetition 0
attr replication #0
attr resultdir results
attr runnumber 0
attr seedset 0
param *.host*.ipv4.arp.typename "\"GlobalArp\""
param *.hostA.numApps 1
param *.hostA.app[0].typename "\"UdpBasicApp\""
param **.hostA.apps[1].typename "\"PingApp\""
param *.hostA.app[0].destAddresses "\"hostB\""
param *.hostA.app[0].destPort 5000
param *.hostA.app[0].messageLength 1000B
param *.hostA.app[0].sendInterval exponential(12ms)
param *.hostA.app[0].packetName "\"UDPData\""
param *.hostB.numApps 1
param *.hostB.app[0].typename "\"UdpSink\""
param *.hostB.app[0].localPort 5000
param *.host*.wlan[0].typename "\"AckingWirelessInterface\""
param *.host*.wlan[0].mac.useAck false
param *.host*.wlan[0].mac.fullDuplex false
param *.host*.wlan[0].radio.transmitter.communicationRange 500m
param *.host*.wlan[0].radio.receiver.ignoreInterference true
param *.host*.wlan[0].mac.headerLength 23B
param *.host*.**.bitrate 1Mbps

vector 0 WirelessA.hostA.wlan[0].radio radioMode:vector ETV
attr interpolationmode sample-hold
attr source radioModeChanged
attr title "Radio mode, vector"
vector 1 WirelessA.hostB.wlan[0].radio radioMode:vector ETV
attr interpolationmode sample-hold
attr source radioModeChanged
attr title "Radio mode, vector"
vector 2 WirelessA.hostR1.wlan[0].radio radioMode:vector ETV
attr interpolationmode sample-hold
attr source radioModeChanged
attr title "Radio mode, vector"
vector 3 WirelessA.hostR2.wlan[0].radio radioMode:vector ETV
attr interpolationmode sample-hold
attr source radioModeChanged
attr title "Radio mode, vector"
vector 4 WirelessA.hostR3.wlan[0].radio radioMode:vector ETV
attr interpolationmode sample-hold
attr source radioModeChanged
attr title "Radio mode, vector"
vector 5 WirelessA.hostA.wlan[0].radio receptionState:vector ETV
attr interpolationmode sample-hold
attr source receptionStateChanged
attr title "Radio reception state, vector"
vector 6 WirelessA.hostB.wlan[0].radio receptionState:vector ETV
attr interpolationmode sample-hold
attr source receptionStateChanged
attr title "Radio reception state, vector"
vector 7 WirelessA.hostR1.wlan[0].radio receptionState:vector ETV
attr interpolationmode sample-hold
attr source receptionStateChanged
attr title "Radio reception state, vector"
vector 8 WirelessA.hostR2.wlan[0].radio receptionState:vector ETV
attr interpolationmode sample-hold
attr source receptionStateChanged
attr title "Radio reception state, vector"
vector 9 WirelessA.hostR3.wlan[0].radio receptionState:vector ETV
attr interpolationmode sample-hold
attr source receptionStateChanged
attr title "Radio reception state, vector"
vector 10 WirelessA.hostA.app[0] packetSent:vector(packetBytes) ETV
attr interpolationmode none
attr source packetSent
attr title "packets sent, vector(packetBytes)"
vector 11 WirelessA.hostA.udp packetSent:vector(packetBytes) ETV
attr interpolationmode none
attr source packetSent
attr title "packets sent, vector(packetBytes)"
vector 12 WirelessA.hostA.wlan[0].mac rcvdPkFromHl:vector(packetBytes) ETV
attr interpolationmode none
attr source packetReceivedFromUpper
attr title "packets received from higher layer, vector(packetBytes)"
vector 13 WirelessA.hostA.wlan[0].mac.queue packetPushed:vector(packetBytes) ETV
attr interpolationmode none
attr title "packet pushed, vector(packetBytes)"
vector 14 WirelessA.hostA.wlan[0].mac.queue queueLength:vector ETV
attr interpolationmode sample-hold
attr source "count(packetPushed) - count(packetPopped) - count(packetRemoved) - count(packetDropped)"
attr title "queue length, vector"
vector 15 WirelessA.hostA.wlan[0].mac.queue packetPopped:vector(packetBytes) ETV
attr interpolationmode none
attr title "packet popped, vector(packetBytes)"
vector 16 WirelessA.hostA.wlan[0].mac.queue queueingTime:vector ETV
attr interpolationmode none
attr source queueingTime(packetPopped)
attr title "queueing times, vector"
attr unit s
vector 17 WirelessA.hostA.wlan[0].radio transmissionState:vector ETV
attr interpolationmode sample-hold
attr source transmissionStateChanged
attr title "Radio transmission state, vector"
vector 18 WirelessA.hostA.wlan[0].mac sentDownPk:vector(packetBytes) ETV
attr interpolationmode none
attr source packetSentToLower
attr title "packets sent to lower layer, vector(packetBytes)"
vector 19 WirelessA.hostB.wlan[0].mac rcvdPkFromLl:vector(packetBytes) ETV
attr interpolationmode none
attr source packetReceivedFromLower
attr title "packets received from lower layer, vector(packetBytes)"
vector 20 WirelessA.hostB.wlan[0].mac passedUpPk:vector(packetBytes) ETV
attr interpolationmode none
attr source packetSentToUpper
attr title "packets passed to higher layer, vector(packetBytes)"
vector 21 WirelessA.hostB.udp packetReceived:vector(packetBytes) ETV
attr interpolationmode none
attr source packetReceived
attr title "packets received, vector(packetBytes)"
vector 22 WirelessA.hostB.udp passedUpPk:vector(count) ETV
attr interpolationmode none
attr source packetSentToUpper
attr title "packets passed up, vector(count)"
vector 23 WirelessA.hostB.app[0] packetReceived:vector(packetBytes) ETV
attr interpolationmode none
attr source packetReceived
attr title "packets received, vector(packetBytes)"
vector 24 WirelessA.hostB.app[0] endToEndDelay:vector ETV
attr interpolationmode none
attr source dataAge(packetReceived)
attr title "end-to-end delay, vector"
attr unit s
vector 25 WirelessA.hostB.app[0] rcvdPkSeqNo:vector ETV
attr interpolationmode none
attr source appPkSeqNo(packetReceived)
attr title "received packet sequence number, vector"
vector 26 WirelessA.hostR2.wlan[0].mac rcvdPkFromLl:vector(packetBytes) ETV
attr interpolationmode none
attr source packetReceivedFromLower
attr title "packets received from lower layer, vector(packetBytes)"
vector 27 WirelessA.hostR2.wlan[0].mac packetDropNotAddressedToUs:vector(packetBytes) ETV
attr interpolationmode none
attr source packetDropReasonIsNotAddressedToUs(packetDropped)
attr title "packet drop: not addressed to us, vector(packetBytes)"
vector 28 WirelessA.hostR1.wlan[0].mac rcvdPkFromLl:vector(packetBytes) ETV
attr interpolationmode none
attr source packetReceivedFromLower
attr title "packets received from lower layer, vector(packetBytes)"
vector 29 WirelessA.hostR1.wlan[0].mac packetDropNotAddressedToUs:vector(packetBytes) ETV
attr interpolationmode none
attr source packetDropReasonIsNotAddressedToUs(packetDropped)
attr title "packet drop: not addressed to us, vector(packetBytes)"
vector 30 WirelessA.hostR3.wlan[0].mac rcvdPkFromLl:vector(packetBytes) ETV
attr interpolationmode none
attr source packetReceivedFromLower
attr title "packets received from lower layer, vector(packetBytes)"
vector 31 WirelessA.hostR3.wlan[0].mac packetDropNotAddressedToUs:vector(packetBytes) ETV
attr interpolationmode none
attr source packetDropReasonIsNotAddressedToUs(packetDropped)
attr title "packet drop: not addressed to us, vector(packetBytes)"
0	0	0	0
0	0	0	0
0	0	0	2
0	8	0.022315250545	3
0	18	0.030819250545	2
0	18	0.030819250545	3
0	39	0.039323250545	2
0	39	0.039323250545	3
0	57	0.047827250545	2
1	0	0	0
1	0	0	0
1	0	0	2
2	0	0	0
2	0	0	0
2	0	0	2
3	0	0	0
3	0	0	0
3	0	0	2
4	0	0	0
4	0	0	0
4	0	0	2
5	0	0	1
5	8	0.022315250545	0
5	18	0.030819250545	1
5	18	0.030819250545	0
5	39	0.039323250545	1
5	39	0.039323250545	0
5	57	0.047827250545	1
6	0	0	1
6	10	0.022315263888	3
6	20	0.030819263888	2
6	21	0.030819263888	3
6	41	0.039323263888	2
6	42	0.039323263888	3
6	58	0.047827263888	1
7	0	0	1
7	12	0.022315283901	3
7	29	0.030819283901	2
7	31	0.030819283901	3
7	50	0.039323283901	2
7	52	0.039323283901	3
7	65	0.047827283901	1
8	0	0	1
8	11	0.02231527723	3
8	26	0.03081927723	2
8	27	0.03081927723	3
8	47	0.03932327723	2
8	48	0.03932327723	3
8	63	0.04782727723	1
9	0	0	1
9	13	0.022315283901	3
9	30	0.030819283901	2
9	32	0.030819283901	3
9	51	0.039323283901	2
9	53	0.039323283901	3
9	66	0.047827283901	1
10	4	0.022315250545	1000
10	14	0.026135524235	1000
10	35	0.033928880414	1000
11	6	0.022315250545	1008
11	15	0.026135524235	1008
11	36	0.033928880414	1008
12	8	0.022315250545	1028
12	17	0.026135524235	1028
12	38	0.033928880414	1028
13	8	0.022315250545	1028
13	17	0.026135524235	1028
13	38	0.033928880414	1028
14	8	0.022315250545	1
14	8	0.022315250545	0
14	17	0.026135524235	1
14	18	0.030819250545	0
14	38	0.033928880414	1
14	39	0.039323250545	0
15	8	0.022315250545	1028
15	18	0.030819250545	1028
15	39	0.039323250545	1028
16	8	0.022315250545	0
16	18	0.030819250545	0.00468372631
16	39	0.039323250545	0.005394370131
17	8	0.022315250545	1
17	9	0.022315250545	2
17	18	0.030819250545	1
17	18	0.030819250545	0
17	18	0.030819250545	1
17	19	0.030819250545	2
17	39	0.039323250545	1
17	39	0.039323250545	0
17	39	0.039323250545	1
17	40	0.039323250545	2
17	57	0.047827250545	1
17	57	0.047827250545	0
18	8	0.022315250545	1051
18	18	0.030819250545	1051
18	39	0.039323250545	1051
19	22	0.030819263888	1051
19	43	0.039323263888	1051
19	59	0.047827263888	1051
20	22	0.030819263888	1028
20	43	0.039323263888	1028
20	59	0.047827263888	1028
21	24	0.030819263888	1008
21	45	0.039323263888	1008
21	61	0.047827263888	1008
22	24	0.030819263888	1
22	45	0.039323263888	2
22	61	0.047827263888	3
23	25	0.030819263888	1000
23	46	0.039323263888	1000
23	62	0.047827263888	1000
24	25	0.030819263888	0.008504013343
24	46	0.039323263888	0.013187739653
24	62	0.047827263888	0.013898383474
25	25	0.030819263888	0
25	46	0.039323263888	1
25	62	0.047827263888	2
26	28	0.03081927723	1051
26	49	0.03932327723	1051
26	64	0.04782727723	1051
27	28	0.03081927723	1051
27	49	0.03932327723	1051
27	64	0.04782727723	1051
28	33	0.030819283901	1051
28	54	0.039323283901	1051
28	67	0.047827283901	1051
29	33	0.030819283901	1051
29	54	0.039323283901	1051
29	67	0.047827283901	1051
30	34	0.030819283901	1051
30	55	0.039323283901	1051
31	34	0.030819283901	1051
31	55	0.039323283901	1051
vector 32 WirelessA.hostA.app[0] throughput:vector ETV
attr source throughput(packetReceived)
attr title "throughput, vector"
attr unit bps
vector 33 WirelessA.hostB.app[0] throughput:vector ETV
attr source throughput(packetReceived)
attr title "throughput, vector"
attr unit bps
32	67	0.047827283901	0
33	67	0.047827283901	501805.62311836

