version 2
run Wireless01-237-20200717-17:33:41-12298
attr configname Wireless01
attr datetime 20200717-17:33:41
attr experiment Wireless01
attr inifile omnetpp.ini
attr iterationvars $name=Wireless_12_1
attr iterationvarsf name=Wireless#_12#_1-
attr measurement $name=Wireless_12_1
attr network "${name=WirelessA, Wireless_3_1, Wireless_3_5, Wireless_3_10, Wireless_6_1,Wireless_6_5,Wireless_6_10,Wireless_12_1,Wireless_12_5,Wireless_12_10}"
attr processid 12298
attr repetition 27
attr replication #27
attr resultdir results
attr runnumber 237
attr seedset 237
itervar name Wireless_12_1
param *.hostA.numApps 1
param *.hostA.app[0].typename "\"TDOAApp\""
param *.hostA.app[0].destAddresses "\"Broadcast\""
param *.hostA.app[0].destPort 5000
param *.hostA.app[0].localPort 6000
param *.hostA.app[0].isReceiver false
param *.hostA.app[0].Nome_arquivo "\"Wireless_12_1.csv\""
param *.host*.numApps 1
param *.host*.app[0].typename "\"TDOAApp\""
param *.host*.app[0].localPort 5000
param *.host*.app[0].destPort 6000
param *.host*.app[0].destAddresses "\"hostA\""
param *.host*.app[0].isReceiver true
param *.host*.wlan[0].typename "\"WirelessInterface\""
param *.radioMedium.typename "\"ApskScalarRadioMedium\""
param *.radioMedium.backgroundNoise.power -90dBm
param *.radioMedium.mediumLimitCache.centerFrequency 2GHz
param *.host*.wlan[0].radio.typename "\"ApskScalarRadio\""
param *.host*.wlan[0].radio.centerFrequency 2GHz
param *.host*.wlan[0].radio.bandwidth 2MHz
param *.host*.wlan[0].radio.transmitter.power 1.4mW
param *.host*.wlan[0].radio.transmitter.preambleDuration 10us
param *.host*.wlan[0].radio.transmitter.headerLength 8B
param *.host*.wlan[0].radio.receiver.sensitivity -85dBm
param *.host*.wlan[0].radio.receiver.energyDetection -85dBm
param *.host*.wlan[0].radio.receiver.snirThreshold 4dB
param *.host*.wlan[0].mac.typename "\"CsmaCaMac\""
param *.host*.wlan[0].mac.ackTimeout 300us
param *.host*.wlan[0].mac.useAck true
param *.host*.wlan[0].mac.fullDuplex false
param *.host*.wlan[0].radio.receiver.ignoreInterference true
param *.host*.wlan[0].mac.headerLength 23B
param *.host*.**.bitrate 1Mbps
param *.host*.ipv4.arp.typename "\"GlobalArp\""
param **.ip.limitedBroadcast true

scalar Wireless_12_1.radioMedium.propagation "Arrival computation count" 336
scalar Wireless_12_1.radioMedium "transmission count" 28
scalar Wireless_12_1.radioMedium "signal send count" 336
scalar Wireless_12_1.radioMedium "reception computation count" 336
scalar Wireless_12_1.radioMedium "interference computation count" 1017
scalar Wireless_12_1.radioMedium "reception decision computation count" 310
scalar Wireless_12_1.radioMedium "listening decision computation count" 377
scalar Wireless_12_1.radioMedium "reception cache hit" 85.702127659574
attr unit %
scalar Wireless_12_1.radioMedium "interference cache hit" 66.666666666667
attr unit %
scalar Wireless_12_1.radioMedium "noise cache hit" 0
attr unit %
scalar Wireless_12_1.radioMedium "snir cache hit" 50
attr unit %
scalar Wireless_12_1.radioMedium "reception decision cache hit" 50
attr unit %
scalar Wireless_12_1.radioMedium "reception result cache hit" 0
attr unit %
scalar Wireless_12_1.hostA.lo[0].lo rcvdPkFromHl:count 1
attr interpolationmode none
attr source packetReceivedFromUpper
attr title "packets received from higher layer, count"
scalar Wireless_12_1.hostA.lo[0].lo rcvdPkFromHl:sum(packetBytes) 32
attr interpolationmode none
attr source packetReceivedFromUpper
attr title "packets received from higher layer, sum(packetBytes)"
scalar Wireless_12_1.hostA.lo[0].lo passedUpPk:count 1
attr interpolationmode none
attr source packetSentToUpper
attr title "packets passed to higher layer, count"
scalar Wireless_12_1.hostA.lo[0].lo passedUpPk:sum(packetBytes) 32
attr interpolationmode none
attr source packetSentToUpper
attr title "packets passed to higher layer, sum(packetBytes)"
scalar Wireless_12_1.hostA.wlan[0].mac.queue packetPopped:count 1
attr interpolationmode none
attr title "packet popped, count"
scalar Wireless_12_1.hostA.wlan[0].mac.queue packetPopped:sum(packetBytes) 59
attr interpolationmode none
attr title "packet popped, sum(packetBytes)"
statistic Wireless_12_1.hostA.wlan[0].mac.queue queueingTime:histogram
field count 1
field mean 0
field stddev -nan
field min 0
field max 0
field sum 0
field sqrsum 0
attr interpolationmode none
attr source queueingTime(packetPopped)
attr title "queueing times, histogram"
attr unit s
bin	-inf	0
bin	-0.5	0
bin	-0.48	0
bin	-0.46	0
bin	-0.44	0
bin	-0.42	0
bin	-0.4	0
bin	-0.38	0
bin	-0.36	0
bin	-0.34	0
bin	-0.32	0
bin	-0.3	0
bin	-0.28	0
bin	-0.26	0
bin	-0.24	0
bin	-0.22	0
bin	-0.2	0
bin	-0.18	0
bin	-0.16	0
bin	-0.14	0
bin	-0.12	0
bin	-0.1	0
bin	-0.08	0
bin	-0.06	0
bin	-0.04	0
bin	-0.02	0
bin	0	1
bin	0.02	0
bin	0.04	0
bin	0.06	0
bin	0.08	0
bin	0.1	0
bin	0.12	0
bin	0.14	0
bin	0.16	0
bin	0.18	0
bin	0.2	0
bin	0.22	0
bin	0.24	0
bin	0.26	0
bin	0.28	0
bin	0.3	0
bin	0.32	0
bin	0.34	0
bin	0.36	0
bin	0.38	0
bin	0.4	0
bin	0.42	0
bin	0.44	0
bin	0.46	0
bin	0.48	0
bin	0.5	0
scalar Wireless_12_1.hostA.wlan[0].mac.queue queueLength:max 1
attr interpolationmode sample-hold
attr source "count(packetPushed) - count(packetPopped) - count(packetRemoved) - count(packetDropped)"
attr title "queue length, max"
scalar Wireless_12_1.hostA.wlan[0].mac.queue queueLength:timeavg 0
attr interpolationmode sample-hold
attr source "count(packetPushed) - count(packetPopped) - count(packetRemoved) - count(packetDropped)"
attr title "queue length, timeavg"
scalar Wireless_12_1.hostA.wlan[0].mac.queue packetPushed:count 1
attr interpolationmode none
attr title "packet pushed, count"
scalar Wireless_12_1.hostA.wlan[0].mac.queue packetPushed:sum(packetBytes) 59
attr interpolationmode none
attr title "packet pushed, sum(packetBytes)"
scalar Wireless_12_1.hostA.wlan[0].mac.queue packetDropQueueOverflow:count 0
attr interpolationmode none
attr source packetDropReasonIsQueueOverflow(packetDropped)
attr title "packet drops: queue overflow, count"
scalar Wireless_12_1.hostA.wlan[0].mac.queue packetDropQueueOverflow:sum(packetBytes) 0
attr interpolationmode none
attr source packetDropReasonIsQueueOverflow(packetDropped)
attr title "packet drops: queue overflow, sum(packetBytes)"
scalar Wireless_12_1.hostA.wlan[0].mac.queue packetRemoved:count 0
attr interpolationmode none
attr title "packets removed, count"
scalar Wireless_12_1.hostA.wlan[0].mac.queue packetRemoved:sum(packetBytes) 0
attr interpolationmode none
attr title "packets removed, sum(packetBytes)"
scalar Wireless_12_1.hostA.wlan[0].mac numRetry 0
scalar Wireless_12_1.hostA.wlan[0].mac numSentWithoutRetry 0
scalar Wireless_12_1.hostA.wlan[0].mac numGivenUp 0
scalar Wireless_12_1.hostA.wlan[0].mac numCollision 1
scalar Wireless_12_1.hostA.wlan[0].mac numSent 0
scalar Wireless_12_1.hostA.wlan[0].mac numReceived 12
scalar Wireless_12_1.hostA.wlan[0].mac numSentBroadcast 1
scalar Wireless_12_1.hostA.wlan[0].mac numReceivedBroadcast 0
scalar Wireless_12_1.hostA.wlan[0].mac packetDropIncorrectlyReceived:count 1
attr interpolationmode none
attr source packetDropReasonIsIncorrectlyReceived(packetDropped)
attr title "packet drop: incorrectly received, count"
scalar Wireless_12_1.hostA.wlan[0].mac packetDropIncorrectlyReceived:sum(packetBytes) 59
attr interpolationmode none
attr source packetDropReasonIsIncorrectlyReceived(packetDropped)
attr title "packet drop: incorrectly received, sum(packetBytes)"
scalar Wireless_12_1.hostA.wlan[0].mac packetDropNotAddressedToUs:count 0
attr interpolationmode none
attr source packetDropReasonIsNotAddressedToUs(packetDropped)
attr title "packet drop: not addressed to us, count"
scalar Wireless_12_1.hostA.wlan[0].mac packetDropNotAddressedToUs:sum(packetBytes) 0
attr interpolationmode none
attr source packetDropReasonIsNotAddressedToUs(packetDropped)
attr title "packet drop: not addressed to us, sum(packetBytes)"
scalar Wireless_12_1.hostA.wlan[0].mac packetDropQueueOverflow:count 0
attr interpolationmode none
attr source packetDropReasonIsQueueOverflow(packetDropped)
attr title "packet drop: queue overflow, count"
scalar Wireless_12_1.hostA.wlan[0].mac packetDropQueueOverflow:sum(packetBytes) 0
attr interpolationmode none
attr source packetDropReasonIsQueueOverflow(packetDropped)
attr title "packet drop: queue overflow, sum(packetBytes)"
scalar Wireless_12_1.hostA.wlan[0].mac packetDropRetryLimitReached:count 0
attr interpolationmode none
attr source packetDropReasonIsRetryLimitReached(packetDropped)
attr title "packet drop: retry limit reached, count"
scalar Wireless_12_1.hostA.wlan[0].mac packetDropRetryLimitReached:sum(packetBytes) 0
attr interpolationmode none
attr source packetDropReasonIsRetryLimitReached(packetDropped)
attr title "packet drop: retry limit reached, sum(packetBytes)"
scalar Wireless_12_1.hostA.wlan[0].mac linkBroken:count 0
attr interpolationmode none
attr source linkBroken
attr title "link break, count"
scalar Wireless_12_1.hostA.wlan[0].radio radioMode:count 29
attr interpolationmode sample-hold
attr source radioModeChanged
attr title "Radio mode, count"
scalar Wireless_12_1.hostA.wlan[0].radio receptionState:count 53
attr interpolationmode sample-hold
attr source receptionStateChanged
attr title "Radio reception state, count"
scalar Wireless_12_1.hostA.wlan[0].radio transmissionState:count 52
attr interpolationmode sample-hold
attr source transmissionStateChanged
attr title "Radio transmission state, count"
statistic Wireless_12_1.hostA.wlan[0].radio minSnir:histogram
field count 13
field mean 183877.1258003
field stddev 55248.050223901
field min 0.4999987451709
field max 199200.17800002
field sum 2390402.6354039
field sqrsum 476168530746.05
attr source minimumSnir(packetSentToUpper)
attr title "Min SNIR, histogram"
bin	-inf	0
bin	0	1
bin	5000	0
bin	10000	0
bin	15000	0
bin	20000	0
bin	25000	0
bin	30000	0
bin	35000	0
bin	40000	0
bin	45000	0
bin	50000	0
bin	55000	0
bin	60000	0
bin	65000	0
bin	70000	0
bin	75000	0
bin	80000	0
bin	85000	0
bin	90000	0
bin	95000	0
bin	100000	0
bin	105000	0
bin	110000	0
bin	115000	0
bin	120000	0
bin	125000	0
bin	130000	0
bin	135000	0
bin	140000	0
bin	145000	0
bin	150000	0
bin	155000	0
bin	160000	0
bin	165000	0
bin	170000	0
bin	175000	0
bin	180000	0
bin	185000	0
bin	190000	0
bin	195000	12
bin	200000	0
bin	205000	0
bin	210000	0
bin	215000	0
bin	220000	0
bin	225000	0
bin	230000	0
bin	235000	0
bin	240000	0
bin	245000	0
bin	250000	0
statistic Wireless_12_1.hostA.wlan[0].radio packetErrorRate:histogram
field count 13
field mean 0.076923076923077
field stddev 0.27735009811261
field min 0
field max 1
field sum 1
field sqrsum 1
attr source packetErrorRate(packetSentToUpper)
attr title "Packet error rate, histogram"
bin	-inf	0
bin	0	12
bin	1	1
bin	2	0
statistic Wireless_12_1.hostA.wlan[0].radio bitErrorRate:histogram
field count 13
field mean 0.0060499895361629
field stddev 0.021813547488656
field min 0
field max 0.078649863970117
field sum 0.078649863970117
field sqrsum 0.006185801102518
attr source bitErrorRate(packetSentToUpper)
attr title "Bit error rate, histogram"
bin	-inf	0
bin	0	12
bin	0.002	0
bin	0.004	0
bin	0.006	0
bin	0.008	0
bin	0.01	0
bin	0.012	0
bin	0.014	0
bin	0.016	0
bin	0.018	0
bin	0.02	0
bin	0.022	0
bin	0.024	0
bin	0.026	0
bin	0.028	0
bin	0.03	0
bin	0.032	0
bin	0.034	0
bin	0.036	0
bin	0.038	0
bin	0.04	0
bin	0.042	0
bin	0.044	0
bin	0.046	0
bin	0.048	0
bin	0.05	0
bin	0.052	0
bin	0.054	0
bin	0.056	0
bin	0.058	0
bin	0.06	0
bin	0.062	0
bin	0.064	0
bin	0.066	0
bin	0.068	0
bin	0.07	0
bin	0.072	0
bin	0.074	0
bin	0.076	0
bin	0.078	1
bin	0.08	0
bin	0.082	0
bin	0.084	0
bin	0.086	0
bin	0.088	0
bin	0.09	0
bin	0.092	0
bin	0.094	0
bin	0.096	0
bin	0.098	0
bin	0.1	0
statistic Wireless_12_1.hostA.wlan[0].radio symbolErrorRate:histogram
field count 13
field mean 0.0060499895361629
field stddev 0.021813547488656
field min 0
field max 0.078649863970117
field sum 0.078649863970117
field sqrsum 0.006185801102518
attr source symbolErrorRate(packetSentToUpper)
attr title "Symbol error rate, histogram"
bin	-inf	0
bin	0	12
bin	0.002	0
bin	0.004	0
bin	0.006	0
bin	0.008	0
bin	0.01	0
bin	0.012	0
bin	0.014	0
bin	0.016	0
bin	0.018	0
bin	0.02	0
bin	0.022	0
bin	0.024	0
bin	0.026	0
bin	0.028	0
bin	0.03	0
bin	0.032	0
bin	0.034	0
bin	0.036	0
bin	0.038	0
bin	0.04	0
bin	0.042	0
bin	0.044	0
bin	0.046	0
bin	0.048	0
bin	0.05	0
bin	0.052	0
bin	0.054	0
bin	0.056	0
bin	0.058	0
bin	0.06	0
bin	0.062	0
bin	0.064	0
bin	0.066	0
bin	0.068	0
bin	0.07	0
bin	0.072	0
bin	0.074	0
bin	0.076	0
bin	0.078	1
bin	0.08	0
bin	0.082	0
bin	0.084	0
bin	0.086	0
bin	0.088	0
bin	0.09	0
bin	0.092	0
bin	0.094	0
bin	0.096	0
bin	0.098	0
bin	0.1	0
scalar Wireless_12_1.hostA.ipv4.ip packetDropAddressResolutionFailed:count 0
attr interpolationmode none
attr source packetDropReasonIsAddressResolutionFailed(packetDropped)
attr title "packet drop: address resolution failed, count"
scalar Wireless_12_1.hostA.ipv4.ip packetDropAddressResolutionFailed:sum(packetBytes) 0
attr interpolationmode none
attr source packetDropReasonIsAddressResolutionFailed(packetDropped)
attr title "packet drop: address resolution failed, sum(packetBytes)"
scalar Wireless_12_1.hostA.ipv4.ip packetDropHopLimitReached:count 0
attr interpolationmode none
attr source packetDropReasonIsHopLimitReached(packetDropped)
attr title "packet drop: hop limit reached, count"
scalar Wireless_12_1.hostA.ipv4.ip packetDropHopLimitReached:sum(packetBytes) 0
attr interpolationmode none
attr source packetDropReasonIsHopLimitReached(packetDropped)
attr title "packet drop: hop limit reached, sum(packetBytes)"
scalar Wireless_12_1.hostA.ipv4.ip packetDropForwardingDisabled:count 0
attr interpolationmode none
attr source packetDropReasonIsForwardingDisabled(packetDropped)
attr title "packet drop: forwarding disabled, count"
scalar Wireless_12_1.hostA.ipv4.ip packetDropForwardingDisabled:sum(packetBytes) 0
attr interpolationmode none
attr source packetDropReasonIsForwardingDisabled(packetDropped)
attr title "packet drop: forwarding disabled, sum(packetBytes)"
scalar Wireless_12_1.hostA.ipv4.ip packetDropNoInterfaceFound:count 0
attr interpolationmode none
attr source packetDropReasonIsNoInterfaceFound(packetDropped)
attr title "packet drop: no interface found, count"
scalar Wireless_12_1.hostA.ipv4.ip packetDropNoInterfaceFound:sum(packetBytes) 0
attr interpolationmode none
attr source packetDropReasonIsNoInterfaceFound(packetDropped)
attr title "packet drop: no interface found, sum(packetBytes)"
scalar Wireless_12_1.hostA.ipv4.ip packetDropNoRouteFound:count 0
attr interpolationmode none
attr source packetDropReasonIsNoRouteFound(packetDropped)
attr title "packet drop: no route found, count"
scalar Wireless_12_1.hostA.ipv4.ip packetDropNoRouteFound:sum(packetBytes) 0
attr interpolationmode none
attr source packetDropReasonIsNoRouteFound(packetDropped)
attr title "packet drop: no route found, sum(packetBytes)"
scalar Wireless_12_1.hostA.ipv4.ip packetDropUndefined:count 0
attr interpolationmode none
attr source packetDropReasonIsUndefined(packetDropped)
attr title "packet drop: undefined, count"
scalar Wireless_12_1.hostA.ipv4.ip packetDropUndefined:sum(packetBytes) 0
attr interpolationmode none
attr source packetDropReasonIsUndefined(packetDropped)
attr title "packet drop: undefined, sum(packetBytes)"
scalar Wireless_12_1.hostA.udp packetReceived:count 13
attr interpolationmode none
attr source packetReceived
attr title "packets received, count"
scalar Wireless_12_1.hostA.udp packetReceived:sum(packetBytes) 156
attr interpolationmode none
attr source packetReceived
attr title "packets received, sum(packetBytes)"
scalar Wireless_12_1.hostA.udp packetSent:count 1
attr interpolationmode none
attr source packetSent
attr title "packets sent, count"
scalar Wireless_12_1.hostA.udp packetSent:sum(packetBytes) 12
attr interpolationmode none
attr source packetSent
attr title "packets sent, sum(packetBytes)"
scalar Wireless_12_1.hostA.udp passedUpPk:count 12
attr interpolationmode none
attr source packetSentToUpper
attr title "packets passed up, count"
scalar Wireless_12_1.hostA.udp droppedPkWrongPort:count 1
attr interpolationmode none
attr source packetDropReasonIsNoPortFound(packetDropped)
attr title "packets dropped (wrong port), count"
scalar Wireless_12_1.hostA.udp droppedPkBadChecksum:count 0
attr interpolationmode none
attr source packetDropReasonIsIncorrectlyReceived(packetDropped)
attr title "packets dropped (checksum error), count"
scalar Wireless_12_1.hostB.lo[0].lo rcvdPkFromHl:count 0
attr interpolationmode none
attr source packetReceivedFromUpper
attr title "packets received from higher layer, count"
scalar Wireless_12_1.hostB.lo[0].lo rcvdPkFromHl:sum(packetBytes) 0
attr interpolationmode none
attr source packetReceivedFromUpper
attr title "packets received from higher layer, sum(packetBytes)"
scalar Wireless_12_1.hostB.lo[0].lo passedUpPk:count 0
attr interpolationmode none
attr source packetSentToUpper
attr title "packets passed to higher layer, count"
scalar Wireless_12_1.hostB.lo[0].lo passedUpPk:sum(packetBytes) 0
attr interpolationmode none
attr source packetSentToUpper
attr title "packets passed to higher layer, sum(packetBytes)"
scalar Wireless_12_1.hostB.wlan[0].mac.queue packetPopped:count 1
attr interpolationmode none
attr title "packet popped, count"
scalar Wireless_12_1.hostB.wlan[0].mac.queue packetPopped:sum(packetBytes) 59
attr interpolationmode none
attr title "packet popped, sum(packetBytes)"
statistic Wireless_12_1.hostB.wlan[0].mac.queue queueingTime:histogram
field count 1
field mean 0
field stddev -nan
field min 0
field max 0
field sum 0
field sqrsum 0
attr interpolationmode none
attr source queueingTime(packetPopped)
attr title "queueing times, histogram"
attr unit s
bin	-inf	0
bin	-0.5	0
bin	-0.48	0
bin	-0.46	0
bin	-0.44	0
bin	-0.42	0
bin	-0.4	0
bin	-0.38	0
bin	-0.36	0
bin	-0.34	0
bin	-0.32	0
bin	-0.3	0
bin	-0.28	0
bin	-0.26	0
bin	-0.24	0
bin	-0.22	0
bin	-0.2	0
bin	-0.18	0
bin	-0.16	0
bin	-0.14	0
bin	-0.12	0
bin	-0.1	0
bin	-0.08	0
bin	-0.06	0
bin	-0.04	0
bin	-0.02	0
bin	0	1
bin	0.02	0
bin	0.04	0
bin	0.06	0
bin	0.08	0
bin	0.1	0
bin	0.12	0
bin	0.14	0
bin	0.16	0
bin	0.18	0
bin	0.2	0
bin	0.22	0
bin	0.24	0
bin	0.26	0
bin	0.28	0
bin	0.3	0
bin	0.32	0
bin	0.34	0
bin	0.36	0
bin	0.38	0
bin	0.4	0
bin	0.42	0
bin	0.44	0
bin	0.46	0
bin	0.48	0
bin	0.5	0
scalar Wireless_12_1.hostB.wlan[0].mac.queue queueLength:max 1
attr interpolationmode sample-hold
attr source "count(packetPushed) - count(packetPopped) - count(packetRemoved) - count(packetDropped)"
attr title "queue length, max"
scalar Wireless_12_1.hostB.wlan[0].mac.queue queueLength:timeavg 0
attr interpolationmode sample-hold
attr source "count(packetPushed) - count(packetPopped) - count(packetRemoved) - count(packetDropped)"
attr title "queue length, timeavg"
scalar Wireless_12_1.hostB.wlan[0].mac.queue packetPushed:count 1
attr interpolationmode none
attr title "packet pushed, count"
scalar Wireless_12_1.hostB.wlan[0].mac.queue packetPushed:sum(packetBytes) 59
attr interpolationmode none
attr title "packet pushed, sum(packetBytes)"
scalar Wireless_12_1.hostB.wlan[0].mac.queue packetDropQueueOverflow:count 0
attr interpolationmode none
attr source packetDropReasonIsQueueOverflow(packetDropped)
attr title "packet drops: queue overflow, count"
scalar Wireless_12_1.hostB.wlan[0].mac.queue packetDropQueueOverflow:sum(packetBytes) 0
attr interpolationmode none
attr source packetDropReasonIsQueueOverflow(packetDropped)
attr title "packet drops: queue overflow, sum(packetBytes)"
scalar Wireless_12_1.hostB.wlan[0].mac.queue packetRemoved:count 0
attr interpolationmode none
attr title "packets removed, count"
scalar Wireless_12_1.hostB.wlan[0].mac.queue packetRemoved:sum(packetBytes) 0
attr interpolationmode none
attr title "packets removed, sum(packetBytes)"
scalar Wireless_12_1.hostB.wlan[0].mac numRetry 0
scalar Wireless_12_1.hostB.wlan[0].mac numSentWithoutRetry 1
scalar Wireless_12_1.hostB.wlan[0].mac numGivenUp 0
scalar Wireless_12_1.hostB.wlan[0].mac numCollision 1
scalar Wireless_12_1.hostB.wlan[0].mac numSent 1
scalar Wireless_12_1.hostB.wlan[0].mac numReceived 0
scalar Wireless_12_1.hostB.wlan[0].mac numSentBroadcast 0
scalar Wireless_12_1.hostB.wlan[0].mac numReceivedBroadcast 1
scalar Wireless_12_1.hostB.wlan[0].mac packetDropIncorrectlyReceived:count 1
attr interpolationmode none
attr source packetDropReasonIsIncorrectlyReceived(packetDropped)
attr title "packet drop: incorrectly received, count"
scalar Wireless_12_1.hostB.wlan[0].mac packetDropIncorrectlyReceived:sum(packetBytes) 59
attr interpolationmode none
attr source packetDropReasonIsIncorrectlyReceived(packetDropped)
attr title "packet drop: incorrectly received, sum(packetBytes)"
scalar Wireless_12_1.hostB.wlan[0].mac packetDropNotAddressedToUs:count 11
attr interpolationmode none
attr source packetDropReasonIsNotAddressedToUs(packetDropped)
attr title "packet drop: not addressed to us, count"
scalar Wireless_12_1.hostB.wlan[0].mac packetDropNotAddressedToUs:sum(packetBytes) 649
attr interpolationmode none
attr source packetDropReasonIsNotAddressedToUs(packetDropped)
attr title "packet drop: not addressed to us, sum(packetBytes)"
scalar Wireless_12_1.hostB.wlan[0].mac packetDropQueueOverflow:count 0
attr interpolationmode none
attr source packetDropReasonIsQueueOverflow(packetDropped)
attr title "packet drop: queue overflow, count"
scalar Wireless_12_1.hostB.wlan[0].mac packetDropQueueOverflow:sum(packetBytes) 0
attr interpolationmode none
attr source packetDropReasonIsQueueOverflow(packetDropped)
attr title "packet drop: queue overflow, sum(packetBytes)"
scalar Wireless_12_1.hostB.wlan[0].mac packetDropRetryLimitReached:count 0
attr interpolationmode none
attr source packetDropReasonIsRetryLimitReached(packetDropped)
attr title "packet drop: retry limit reached, count"
scalar Wireless_12_1.hostB.wlan[0].mac packetDropRetryLimitReached:sum(packetBytes) 0
attr interpolationmode none
attr source packetDropReasonIsRetryLimitReached(packetDropped)
attr title "packet drop: retry limit reached, sum(packetBytes)"
scalar Wireless_12_1.hostB.wlan[0].mac linkBroken:count 0
attr interpolationmode none
attr source linkBroken
attr title "link break, count"
scalar Wireless_12_1.hostB.wlan[0].radio radioMode:count 5
attr interpolationmode sample-hold
attr source radioModeChanged
attr title "Radio mode, count"
scalar Wireless_12_1.hostB.wlan[0].radio receptionState:count 54
attr interpolationmode sample-hold
attr source receptionStateChanged
attr title "Radio reception state, count"
scalar Wireless_12_1.hostB.wlan[0].radio transmissionState:count 4
attr interpolationmode sample-hold
attr source transmissionStateChanged
attr title "Radio transmission state, count"
statistic Wireless_12_1.hostB.wlan[0].radio minSnir:histogram
field count 25
field mean 198536.22532962
field stddev 177011.42669076
field min 1.1999927711941
field max 743425.18533312
field sum 4963405.6332405
field sqrsum 1737408903501.6
attr source minimumSnir(packetSentToUpper)
attr title "Min SNIR, histogram"
bin	-inf	0
bin	0	1
bin	20000	0
bin	40000	3
bin	60000	2
bin	80000	2
bin	100000	0
bin	120000	0
bin	140000	0
bin	160000	0
bin	180000	15
bin	200000	0
bin	220000	0
bin	240000	0
bin	260000	0
bin	280000	0
bin	300000	0
bin	320000	0
bin	340000	0
bin	360000	0
bin	380000	0
bin	400000	0
bin	420000	0
bin	440000	0
bin	460000	0
bin	480000	0
bin	500000	0
bin	520000	0
bin	540000	0
bin	560000	0
bin	580000	0
bin	600000	0
bin	620000	0
bin	640000	0
bin	660000	0
bin	680000	0
bin	700000	0
bin	720000	0
bin	740000	2
bin	760000	0
bin	780000	0
bin	800000	0
bin	820000	0
bin	840000	0
bin	860000	0
bin	880000	0
bin	900000	0
bin	920000	0
bin	940000	0
statistic Wireless_12_1.hostB.wlan[0].radio packetErrorRate:histogram
field count 25
field mean 0.039981560263656
field stddev 0.19990780131828
field min 0
field max 0.99953900659141
field sum 0.99953900659141
field sqrsum 0.99907822569774
attr source packetErrorRate(packetSentToUpper)
attr title "Packet error rate, histogram"
bin	-inf	0
bin	0	24
bin	0.02	0
bin	0.04	0
bin	0.06	0
bin	0.08	0
bin	0.1	0
bin	0.12	0
bin	0.14	0
bin	0.16	0
bin	0.18	0
bin	0.2	0
bin	0.22	0
bin	0.24	0
bin	0.26	0
bin	0.28	0
bin	0.3	0
bin	0.32	0
bin	0.34	0
bin	0.36	0
bin	0.38	0
bin	0.4	0
bin	0.42	0
bin	0.44	0
bin	0.46	0
bin	0.48	0
bin	0.5	0
bin	0.52	0
bin	0.54	0
bin	0.56	0
bin	0.58	0
bin	0.6	0
bin	0.62	0
bin	0.64	0
bin	0.66	0
bin	0.68	0
bin	0.7	0
bin	0.72	0
bin	0.74	0
bin	0.76	0
bin	0.78	0
bin	0.8	0
bin	0.82	0
bin	0.84	0
bin	0.86	0
bin	0.88	0
bin	0.9	0
bin	0.92	0
bin	0.94	0
bin	0.96	0
bin	0.98	1
bin	1	0
bin	1.02	0
bin	1.04	0
bin	1.06	0
bin	1.08	0
bin	1.1	0
bin	1.12	0
bin	1.14	0
bin	1.16	0
bin	1.18	0
bin	1.2	0
bin	1.22	0
bin	1.24	0
bin	1.26	0
statistic Wireless_12_1.hostB.wlan[0].radio bitErrorRate:histogram
field count 25
field mean 0.00056920429139787
field stddev 0.0028460214569894
field min 0
field max 0.014230107284947
field sum 0.014230107284947
field sqrsum 0.0002024959533411
attr source bitErrorRate(packetSentToUpper)
attr title "Bit error rate, histogram"
bin	-inf	0
bin	0	24
bin	0.0002	0
bin	0.0004	0
bin	0.0006	0
bin	0.0008	0
bin	0.001	0
bin	0.0012	0
bin	0.0014	0
bin	0.0016	0
bin	0.0018	0
bin	0.002	0
bin	0.0022	0
bin	0.0024	0
bin	0.0026	0
bin	0.0028	0
bin	0.003	0
bin	0.0032	0
bin	0.0034	0
bin	0.0036	0
bin	0.0038	0
bin	0.004	0
bin	0.0042	0
bin	0.0044	0
bin	0.0046	0
bin	0.0048	0
bin	0.005	0
bin	0.0052	0
bin	0.0054	0
bin	0.0056	0
bin	0.0058	0
bin	0.006	0
bin	0.0062	0
bin	0.0064	0
bin	0.0066	0
bin	0.0068	0
bin	0.007	0
bin	0.0072	0
bin	0.0074	0
bin	0.0076	0
bin	0.0078	0
bin	0.008	0
bin	0.0082	0
bin	0.0084	0
bin	0.0086	0
bin	0.0088	0
bin	0.009	0
bin	0.0092	0
bin	0.0094	0
bin	0.0096	0
bin	0.0098	0
bin	0.01	0
bin	0.0102	0
bin	0.0104	0
bin	0.0106	0
bin	0.0108	0
bin	0.011	0
bin	0.0112	0
bin	0.0114	0
bin	0.0116	0
bin	0.0118	0
bin	0.012	0
bin	0.0122	0
bin	0.0124	0
bin	0.0126	0
bin	0.0128	0
bin	0.013	0
bin	0.0132	0
bin	0.0134	0
bin	0.0136	0
bin	0.0138	0
bin	0.014	0
bin	0.0142	1
bin	0.0144	0
bin	0.0146	0
bin	0.0148	0
bin	0.015	0
bin	0.0152	0
bin	0.0154	0
bin	0.0156	0
bin	0.0158	0
bin	0.016	0
bin	0.0162	0
bin	0.0164	0
bin	0.0166	0
bin	0.0168	0
bin	0.017	0
bin	0.0172	0
bin	0.0174	0
bin	0.0176	0
bin	0.0178	0
statistic Wireless_12_1.hostB.wlan[0].radio symbolErrorRate:histogram
field count 25
field mean 0.00056920429139787
field stddev 0.0028460214569894
field min 0
field max 0.014230107284947
field sum 0.014230107284947
field sqrsum 0.0002024959533411
attr source symbolErrorRate(packetSentToUpper)
attr title "Symbol error rate, histogram"
bin	-inf	0
bin	0	24
bin	0.0002	0
bin	0.0004	0
bin	0.0006	0
bin	0.0008	0
bin	0.001	0
bin	0.0012	0
bin	0.0014	0
bin	0.0016	0
bin	0.0018	0
bin	0.002	0
bin	0.0022	0
bin	0.0024	0
bin	0.0026	0
bin	0.0028	0
bin	0.003	0
bin	0.0032	0
bin	0.0034	0
bin	0.0036	0
bin	0.0038	0
bin	0.004	0
bin	0.0042	0
bin	0.0044	0
bin	0.0046	0
bin	0.0048	0
bin	0.005	0
bin	0.0052	0
bin	0.0054	0
bin	0.0056	0
bin	0.0058	0
bin	0.006	0
bin	0.0062	0
bin	0.0064	0
bin	0.0066	0
bin	0.0068	0
bin	0.007	0
bin	0.0072	0
bin	0.0074	0
bin	0.0076	0
bin	0.0078	0
bin	0.008	0
bin	0.0082	0
bin	0.0084	0
bin	0.0086	0
bin	0.0088	0
bin	0.009	0
bin	0.0092	0
bin	0.0094	0
bin	0.0096	0
bin	0.0098	0
bin	0.01	0
bin	0.0102	0
bin	0.0104	0
bin	0.0106	0
bin	0.0108	0
bin	0.011	0
bin	0.0112	0
bin	0.0114	0
bin	0.0116	0
bin	0.0118	0
bin	0.012	0
bin	0.0122	0
bin	0.0124	0
bin	0.0126	0
bin	0.0128	0
bin	0.013	0
bin	0.0132	0
bin	0.0134	0
bin	0.0136	0
bin	0.0138	0
bin	0.014	0
bin	0.0142	1
bin	0.0144	0
bin	0.0146	0
bin	0.0148	0
bin	0.015	0
bin	0.0152	0
bin	0.0154	0
bin	0.0156	0
bin	0.0158	0
bin	0.016	0
bin	0.0162	0
bin	0.0164	0
bin	0.0166	0
bin	0.0168	0
bin	0.017	0
bin	0.0172	0
bin	0.0174	0
bin	0.0176	0
bin	0.0178	0
scalar Wireless_12_1.hostB.ipv4.ip packetDropAddressResolutionFailed:count 0
attr interpolationmode none
attr source packetDropReasonIsAddressResolutionFailed(packetDropped)
attr title "packet drop: address resolution failed, count"
scalar Wireless_12_1.hostB.ipv4.ip packetDropAddressResolutionFailed:sum(packetBytes) 0
attr interpolationmode none
attr source packetDropReasonIsAddressResolutionFailed(packetDropped)
attr title "packet drop: address resolution failed, sum(packetBytes)"
scalar Wireless_12_1.hostB.ipv4.ip packetDropHopLimitReached:count 0
attr interpolationmode none
attr source packetDropReasonIsHopLimitReached(packetDropped)
attr title "packet drop: hop limit reached, count"
scalar Wireless_12_1.hostB.ipv4.ip packetDropHopLimitReached:sum(packetBytes) 0
attr interpolationmode none
attr source packetDropReasonIsHopLimitReached(packetDropped)
attr title "packet drop: hop limit reached, sum(packetBytes)"
scalar Wireless_12_1.hostB.ipv4.ip packetDropForwardingDisabled:count 0
attr interpolationmode none
attr source packetDropReasonIsForwardingDisabled(packetDropped)
attr title "packet drop: forwarding disabled, count"
scalar Wireless_12_1.hostB.ipv4.ip packetDropForwardingDisabled:sum(packetBytes) 0
attr interpolationmode none
attr source packetDropReasonIsForwardingDisabled(packetDropped)
attr title "packet drop: forwarding disabled, sum(packetBytes)"
scalar Wireless_12_1.hostB.ipv4.ip packetDropNoInterfaceFound:count 0
attr interpolationmode none
attr source packetDropReasonIsNoInterfaceFound(packetDropped)
attr title "packet drop: no interface found, count"
scalar Wireless_12_1.hostB.ipv4.ip packetDropNoInterfaceFound:sum(packetBytes) 0
attr interpolationmode none
attr source packetDropReasonIsNoInterfaceFound(packetDropped)
attr title "packet drop: no interface found, sum(packetBytes)"
scalar Wireless_12_1.hostB.ipv4.ip packetDropNoRouteFound:count 0
attr interpolationmode none
attr source packetDropReasonIsNoRouteFound(packetDropped)
attr title "packet drop: no route found, count"
scalar Wireless_12_1.hostB.ipv4.ip packetDropNoRouteFound:sum(packetBytes) 0
attr interpolationmode none
attr source packetDropReasonIsNoRouteFound(packetDropped)
attr title "packet drop: no route found, sum(packetBytes)"
scalar Wireless_12_1.hostB.ipv4.ip packetDropUndefined:count 0
attr interpolationmode none
attr source packetDropReasonIsUndefined(packetDropped)
attr title "packet drop: undefined, count"
scalar Wireless_12_1.hostB.ipv4.ip packetDropUndefined:sum(packetBytes) 0
attr interpolationmode none
attr source packetDropReasonIsUndefined(packetDropped)
attr title "packet drop: undefined, sum(packetBytes)"
scalar Wireless_12_1.hostB.udp packetReceived:count 1
attr interpolationmode none
attr source packetReceived
attr title "packets received, count"
scalar Wireless_12_1.hostB.udp packetReceived:sum(packetBytes) 12
attr interpolationmode none
attr source packetReceived
attr title "packets received, sum(packetBytes)"
scalar Wireless_12_1.hostB.udp packetSent:count 1
attr interpolationmode none
attr source packetSent
attr title "packets sent, count"
scalar Wireless_12_1.hostB.udp packetSent:sum(packetBytes) 12
attr interpolationmode none
attr source packetSent
attr title "packets sent, sum(packetBytes)"
scalar Wireless_12_1.hostB.udp passedUpPk:count 1
attr interpolationmode none
attr source packetSentToUpper
attr title "packets passed up, count"
scalar Wireless_12_1.hostB.udp droppedPkWrongPort:count 0
attr interpolationmode none
attr source packetDropReasonIsNoPortFound(packetDropped)
attr title "packets dropped (wrong port), count"
scalar Wireless_12_1.hostB.udp droppedPkBadChecksum:count 0
attr interpolationmode none
attr source packetDropReasonIsIncorrectlyReceived(packetDropped)
attr title "packets dropped (checksum error), count"
scalar Wireless_12_1.hostC.lo[0].lo rcvdPkFromHl:count 0
attr interpolationmode none
attr source packetReceivedFromUpper
attr title "packets received from higher layer, count"
scalar Wireless_12_1.hostC.lo[0].lo rcvdPkFromHl:sum(packetBytes) 0
attr interpolationmode none
attr source packetReceivedFromUpper
attr title "packets received from higher layer, sum(packetBytes)"
scalar Wireless_12_1.hostC.lo[0].lo passedUpPk:count 0
attr interpolationmode none
attr source packetSentToUpper
attr title "packets passed to higher layer, count"
scalar Wireless_12_1.hostC.lo[0].lo passedUpPk:sum(packetBytes) 0
attr interpolationmode none
attr source packetSentToUpper
attr title "packets passed to higher layer, sum(packetBytes)"
scalar Wireless_12_1.hostC.wlan[0].mac.queue packetPopped:count 1
attr interpolationmode none
attr title "packet popped, count"
scalar Wireless_12_1.hostC.wlan[0].mac.queue packetPopped:sum(packetBytes) 59
attr interpolationmode none
attr title "packet popped, sum(packetBytes)"
statistic Wireless_12_1.hostC.wlan[0].mac.queue queueingTime:histogram
field count 1
field mean 0
field stddev -nan
field min 0
field max 0
field sum 0
field sqrsum 0
attr interpolationmode none
attr source queueingTime(packetPopped)
attr title "queueing times, histogram"
attr unit s
bin	-inf	0
bin	-0.5	0
bin	-0.48	0
bin	-0.46	0
bin	-0.44	0
bin	-0.42	0
bin	-0.4	0
bin	-0.38	0
bin	-0.36	0
bin	-0.34	0
bin	-0.32	0
bin	-0.3	0
bin	-0.28	0
bin	-0.26	0
bin	-0.24	0
bin	-0.22	0
bin	-0.2	0
bin	-0.18	0
bin	-0.16	0
bin	-0.14	0
bin	-0.12	0
bin	-0.1	0
bin	-0.08	0
bin	-0.06	0
bin	-0.04	0
bin	-0.02	0
bin	0	1
bin	0.02	0
bin	0.04	0
bin	0.06	0
bin	0.08	0
bin	0.1	0
bin	0.12	0
bin	0.14	0
bin	0.16	0
bin	0.18	0
bin	0.2	0
bin	0.22	0
bin	0.24	0
bin	0.26	0
bin	0.28	0
bin	0.3	0
bin	0.32	0
bin	0.34	0
bin	0.36	0
bin	0.38	0
bin	0.4	0
bin	0.42	0
bin	0.44	0
bin	0.46	0
bin	0.48	0
bin	0.5	0
scalar Wireless_12_1.hostC.wlan[0].mac.queue queueLength:max 1
attr interpolationmode sample-hold
attr source "count(packetPushed) - count(packetPopped) - count(packetRemoved) - count(packetDropped)"
attr title "queue length, max"
scalar Wireless_12_1.hostC.wlan[0].mac.queue queueLength:timeavg 0
attr interpolationmode sample-hold
attr source "count(packetPushed) - count(packetPopped) - count(packetRemoved) - count(packetDropped)"
attr title "queue length, timeavg"
scalar Wireless_12_1.hostC.wlan[0].mac.queue packetPushed:count 1
attr interpolationmode none
attr title "packet pushed, count"
scalar Wireless_12_1.hostC.wlan[0].mac.queue packetPushed:sum(packetBytes) 59
attr interpolationmode none
attr title "packet pushed, sum(packetBytes)"
scalar Wireless_12_1.hostC.wlan[0].mac.queue packetDropQueueOverflow:count 0
attr interpolationmode none
attr source packetDropReasonIsQueueOverflow(packetDropped)
attr title "packet drops: queue overflow, count"
scalar Wireless_12_1.hostC.wlan[0].mac.queue packetDropQueueOverflow:sum(packetBytes) 0
attr interpolationmode none
attr source packetDropReasonIsQueueOverflow(packetDropped)
attr title "packet drops: queue overflow, sum(packetBytes)"
scalar Wireless_12_1.hostC.wlan[0].mac.queue packetRemoved:count 0
attr interpolationmode none
attr title "packets removed, count"
scalar Wireless_12_1.hostC.wlan[0].mac.queue packetRemoved:sum(packetBytes) 0
attr interpolationmode none
attr title "packets removed, sum(packetBytes)"
scalar Wireless_12_1.hostC.wlan[0].mac numRetry 0
scalar Wireless_12_1.hostC.wlan[0].mac numSentWithoutRetry 1
scalar Wireless_12_1.hostC.wlan[0].mac numGivenUp 0
scalar Wireless_12_1.hostC.wlan[0].mac numCollision 0
scalar Wireless_12_1.hostC.wlan[0].mac numSent 1
scalar Wireless_12_1.hostC.wlan[0].mac numReceived 0
scalar Wireless_12_1.hostC.wlan[0].mac numSentBroadcast 0
scalar Wireless_12_1.hostC.wlan[0].mac numReceivedBroadcast 1
scalar Wireless_12_1.hostC.wlan[0].mac packetDropIncorrectlyReceived:count 0
attr interpolationmode none
attr source packetDropReasonIsIncorrectlyReceived(packetDropped)
attr title "packet drop: incorrectly received, count"
scalar Wireless_12_1.hostC.wlan[0].mac packetDropIncorrectlyReceived:sum(packetBytes) 0
attr interpolationmode none
attr source packetDropReasonIsIncorrectlyReceived(packetDropped)
attr title "packet drop: incorrectly received, sum(packetBytes)"
scalar Wireless_12_1.hostC.wlan[0].mac packetDropNotAddressedToUs:count 12
attr interpolationmode none
attr source packetDropReasonIsNotAddressedToUs(packetDropped)
attr title "packet drop: not addressed to us, count"
scalar Wireless_12_1.hostC.wlan[0].mac packetDropNotAddressedToUs:sum(packetBytes) 708
attr interpolationmode none
attr source packetDropReasonIsNotAddressedToUs(packetDropped)
attr title "packet drop: not addressed to us, sum(packetBytes)"
scalar Wireless_12_1.hostC.wlan[0].mac packetDropQueueOverflow:count 0
attr interpolationmode none
attr source packetDropReasonIsQueueOverflow(packetDropped)
attr title "packet drop: queue overflow, count"
scalar Wireless_12_1.hostC.wlan[0].mac packetDropQueueOverflow:sum(packetBytes) 0
attr interpolationmode none
attr source packetDropReasonIsQueueOverflow(packetDropped)
attr title "packet drop: queue overflow, sum(packetBytes)"
scalar Wireless_12_1.hostC.wlan[0].mac packetDropRetryLimitReached:count 0
attr interpolationmode none
attr source packetDropReasonIsRetryLimitReached(packetDropped)
attr title "packet drop: retry limit reached, count"
scalar Wireless_12_1.hostC.wlan[0].mac packetDropRetryLimitReached:sum(packetBytes) 0
attr interpolationmode none
attr source packetDropReasonIsRetryLimitReached(packetDropped)
attr title "packet drop: retry limit reached, sum(packetBytes)"
scalar Wireless_12_1.hostC.wlan[0].mac linkBroken:count 0
attr interpolationmode none
attr source linkBroken
attr title "link break, count"
scalar Wireless_12_1.hostC.wlan[0].radio radioMode:count 5
attr interpolationmode sample-hold
attr source radioModeChanged
attr title "Radio mode, count"
scalar Wireless_12_1.hostC.wlan[0].radio receptionState:count 54
attr interpolationmode sample-hold
attr source receptionStateChanged
attr title "Radio reception state, count"
scalar Wireless_12_1.hostC.wlan[0].radio transmissionState:count 4
attr interpolationmode sample-hold
attr source transmissionStateChanged
attr title "Radio transmission state, count"
statistic Wireless_12_1.hostC.wlan[0].radio minSnir:histogram
field count 25
field mean 198536.43323976
field stddev 177011.18378651
field min 6.3977463203375
field max 743425.18533312
field sum 4963410.830994
field sqrsum 1737408903541.1
attr source minimumSnir(packetSentToUpper)
attr title "Min SNIR, histogram"
bin	-inf	0
bin	0	1
bin	20000	0
bin	40000	3
bin	60000	2
bin	80000	2
bin	100000	0
bin	120000	0
bin	140000	0
bin	160000	0
bin	180000	15
bin	200000	0
bin	220000	0
bin	240000	0
bin	260000	0
bin	280000	0
bin	300000	0
bin	320000	0
bin	340000	0
bin	360000	0
bin	380000	0
bin	400000	0
bin	420000	0
bin	440000	0
bin	460000	0
bin	480000	0
bin	500000	0
bin	520000	0
bin	540000	0
bin	560000	0
bin	580000	0
bin	600000	0
bin	620000	0
bin	640000	0
bin	660000	0
bin	680000	0
bin	700000	0
bin	720000	0
bin	740000	2
bin	760000	0
bin	780000	0
bin	800000	0
bin	820000	0
bin	840000	0
bin	860000	0
bin	880000	0
bin	900000	0
bin	920000	0
bin	940000	0
statistic Wireless_12_1.hostC.wlan[0].radio packetErrorRate:histogram
field count 25
field mean 4.5236525642522e-06
field stddev 2.2618262821261e-05
field min 0
field max 0.00011309131410631
field sum 0.00011309131410631
field sqrsum 1.2789645326291e-08
attr source packetErrorRate(packetSentToUpper)
attr title "Packet error rate, histogram"
bin	-inf	0
bin	0	24
bin	2e-06	0
bin	4e-06	0
bin	6e-06	0
bin	8e-06	0
bin	1e-05	0
bin	1.2e-05	0
bin	1.4e-05	0
bin	1.6e-05	0
bin	1.8e-05	0
bin	2e-05	0
bin	2.2e-05	0
bin	2.4e-05	0
bin	2.6e-05	0
bin	2.8e-05	0
bin	3e-05	0
bin	3.2e-05	0
bin	3.4e-05	0
bin	3.6e-05	0
bin	3.8e-05	0
bin	4e-05	0
bin	4.2e-05	0
bin	4.4e-05	0
bin	4.6e-05	0
bin	4.8e-05	0
bin	5e-05	0
bin	5.2e-05	0
bin	5.4e-05	0
bin	5.6e-05	0
bin	5.8e-05	0
bin	6e-05	0
bin	6.2e-05	0
bin	6.4e-05	0
bin	6.6e-05	0
bin	6.8e-05	0
bin	7e-05	0
bin	7.2e-05	0
bin	7.4e-05	0
bin	7.6e-05	0
bin	7.8e-05	0
bin	8e-05	0
bin	8.2e-05	0
bin	8.4e-05	0
bin	8.6e-05	0
bin	8.8e-05	0
bin	9e-05	0
bin	9.2e-05	0
bin	9.4e-05	0
bin	9.6e-05	0
bin	9.8e-05	0
bin	0.0001	0
bin	0.000102	0
bin	0.000104	0
bin	0.000106	0
bin	0.000108	0
bin	0.00011	0
bin	0.000112	1
bin	0.000114	0
bin	0.000116	0
bin	0.000118	0
bin	0.00012	0
bin	0.000122	0
bin	0.000124	0
bin	0.000126	0
bin	0.000128	0
bin	0.00013	0
bin	0.000132	0
bin	0.000134	0
bin	0.000136	0
bin	0.000138	0
bin	0.00014	0
bin	0.000142	0
statistic Wireless_12_1.hostC.wlan[0].radio bitErrorRate:histogram
field count 25
field mean 8.4401266772522e-09
field stddev 4.2200633386261e-08
field min 0
field max 2.1100316693131e-07
field sum 2.1100316693131e-07
field sqrsum 4.4522336455041e-14
attr source bitErrorRate(packetSentToUpper)
attr title "Bit error rate, histogram"
bin	-inf	0
bin	0	24
bin	5e-09	0
bin	1e-08	0
bin	1.5e-08	0
bin	2e-08	0
bin	2.5e-08	0
bin	3e-08	0
bin	3.5e-08	0
bin	4e-08	0
bin	4.5e-08	0
bin	5e-08	0
bin	5.5e-08	0
bin	6e-08	0
bin	6.5e-08	0
bin	7e-08	0
bin	7.5e-08	0
bin	8e-08	0
bin	8.5e-08	0
bin	9e-08	0
bin	9.5e-08	0
bin	1e-07	0
bin	1.05e-07	0
bin	1.1e-07	0
bin	1.15e-07	0
bin	1.2e-07	0
bin	1.25e-07	0
bin	1.3e-07	0
bin	1.35e-07	0
bin	1.4e-07	0
bin	1.45e-07	0
bin	1.5e-07	0
bin	1.55e-07	0
bin	1.6e-07	0
bin	1.65e-07	0
bin	1.7e-07	0
bin	1.75e-07	0
bin	1.8e-07	0
bin	1.85e-07	0
bin	1.9e-07	0
bin	1.95e-07	0
bin	2e-07	0
bin	2.05e-07	0
bin	2.1e-07	1
bin	2.15e-07	0
bin	2.2e-07	0
bin	2.25e-07	0
bin	2.3e-07	0
bin	2.35e-07	0
bin	2.4e-07	0
bin	2.45e-07	0
bin	2.5e-07	0
bin	2.55e-07	0
bin	2.6e-07	0
bin	2.65e-07	0
statistic Wireless_12_1.hostC.wlan[0].radio symbolErrorRate:histogram
field count 25
field mean 8.4401266772522e-09
field stddev 4.2200633386261e-08
field min 0
field max 2.1100316693131e-07
field sum 2.1100316693131e-07
field sqrsum 4.4522336455041e-14
attr source symbolErrorRate(packetSentToUpper)
attr title "Symbol error rate, histogram"
bin	-inf	0
bin	0	24
bin	5e-09	0
bin	1e-08	0
bin	1.5e-08	0
bin	2e-08	0
bin	2.5e-08	0
bin	3e-08	0
bin	3.5e-08	0
bin	4e-08	0
bin	4.5e-08	0
bin	5e-08	0
bin	5.5e-08	0
bin	6e-08	0
bin	6.5e-08	0
bin	7e-08	0
bin	7.5e-08	0
bin	8e-08	0
bin	8.5e-08	0
bin	9e-08	0
bin	9.5e-08	0
bin	1e-07	0
bin	1.05e-07	0
bin	1.1e-07	0
bin	1.15e-07	0
bin	1.2e-07	0
bin	1.25e-07	0
bin	1.3e-07	0
bin	1.35e-07	0
bin	1.4e-07	0
bin	1.45e-07	0
bin	1.5e-07	0
bin	1.55e-07	0
bin	1.6e-07	0
bin	1.65e-07	0
bin	1.7e-07	0
bin	1.75e-07	0
bin	1.8e-07	0
bin	1.85e-07	0
bin	1.9e-07	0
bin	1.95e-07	0
bin	2e-07	0
bin	2.05e-07	0
bin	2.1e-07	1
bin	2.15e-07	0
bin	2.2e-07	0
bin	2.25e-07	0
bin	2.3e-07	0
bin	2.35e-07	0
bin	2.4e-07	0
bin	2.45e-07	0
bin	2.5e-07	0
bin	2.55e-07	0
bin	2.6e-07	0
bin	2.65e-07	0
scalar Wireless_12_1.hostC.ipv4.ip packetDropAddressResolutionFailed:count 0
attr interpolationmode none
attr source packetDropReasonIsAddressResolutionFailed(packetDropped)
attr title "packet drop: address resolution failed, count"
scalar Wireless_12_1.hostC.ipv4.ip packetDropAddressResolutionFailed:sum(packetBytes) 0
attr interpolationmode none
attr source packetDropReasonIsAddressResolutionFailed(packetDropped)
attr title "packet drop: address resolution failed, sum(packetBytes)"
scalar Wireless_12_1.hostC.ipv4.ip packetDropHopLimitReached:count 0
attr interpolationmode none
attr source packetDropReasonIsHopLimitReached(packetDropped)
attr title "packet drop: hop limit reached, count"
scalar Wireless_12_1.hostC.ipv4.ip packetDropHopLimitReached:sum(packetBytes) 0
attr interpolationmode none
attr source packetDropReasonIsHopLimitReached(packetDropped)
attr title "packet drop: hop limit reached, sum(packetBytes)"
scalar Wireless_12_1.hostC.ipv4.ip packetDropForwardingDisabled:count 0
attr interpolationmode none
attr source packetDropReasonIsForwardingDisabled(packetDropped)
attr title "packet drop: forwarding disabled, count"
scalar Wireless_12_1.hostC.ipv4.ip packetDropForwardingDisabled:sum(packetBytes) 0
attr interpolationmode none
attr source packetDropReasonIsForwardingDisabled(packetDropped)
attr title "packet drop: forwarding disabled, sum(packetBytes)"
scalar Wireless_12_1.hostC.ipv4.ip packetDropNoInterfaceFound:count 0
attr interpolationmode none
attr source packetDropReasonIsNoInterfaceFound(packetDropped)
attr title "packet drop: no interface found, count"
scalar Wireless_12_1.hostC.ipv4.ip packetDropNoInterfaceFound:sum(packetBytes) 0
attr interpolationmode none
attr source packetDropReasonIsNoInterfaceFound(packetDropped)
attr title "packet drop: no interface found, sum(packetBytes)"
scalar Wireless_12_1.hostC.ipv4.ip packetDropNoRouteFound:count 0
attr interpolationmode none
attr source packetDropReasonIsNoRouteFound(packetDropped)
attr title "packet drop: no route found, count"
scalar Wireless_12_1.hostC.ipv4.ip packetDropNoRouteFound:sum(packetBytes) 0
attr interpolationmode none
attr source packetDropReasonIsNoRouteFound(packetDropped)
attr title "packet drop: no route found, sum(packetBytes)"
scalar Wireless_12_1.hostC.ipv4.ip packetDropUndefined:count 0
attr interpolationmode none
attr source packetDropReasonIsUndefined(packetDropped)
attr title "packet drop: undefined, count"
scalar Wireless_12_1.hostC.ipv4.ip packetDropUndefined:sum(packetBytes) 0
attr interpolationmode none
attr source packetDropReasonIsUndefined(packetDropped)
attr title "packet drop: undefined, sum(packetBytes)"
scalar Wireless_12_1.hostC.udp packetReceived:count 1
attr interpolationmode none
attr source packetReceived
attr title "packets received, count"
scalar Wireless_12_1.hostC.udp packetReceived:sum(packetBytes) 12
attr interpolationmode none
attr source packetReceived
attr title "packets received, sum(packetBytes)"
scalar Wireless_12_1.hostC.udp packetSent:count 1
attr interpolationmode none
attr source packetSent
attr title "packets sent, count"
scalar Wireless_12_1.hostC.udp packetSent:sum(packetBytes) 12
attr interpolationmode none
attr source packetSent
attr title "packets sent, sum(packetBytes)"
scalar Wireless_12_1.hostC.udp passedUpPk:count 1
attr interpolationmode none
attr source packetSentToUpper
attr title "packets passed up, count"
scalar Wireless_12_1.hostC.udp droppedPkWrongPort:count 0
attr interpolationmode none
attr source packetDropReasonIsNoPortFound(packetDropped)
attr title "packets dropped (wrong port), count"
scalar Wireless_12_1.hostC.udp droppedPkBadChecksum:count 0
attr interpolationmode none
attr source packetDropReasonIsIncorrectlyReceived(packetDropped)
attr title "packets dropped (checksum error), count"
scalar Wireless_12_1.hostD.lo[0].lo rcvdPkFromHl:count 0
attr interpolationmode none
attr source packetReceivedFromUpper
attr title "packets received from higher layer, count"
scalar Wireless_12_1.hostD.lo[0].lo rcvdPkFromHl:sum(packetBytes) 0
attr interpolationmode none
attr source packetReceivedFromUpper
attr title "packets received from higher layer, sum(packetBytes)"
scalar Wireless_12_1.hostD.lo[0].lo passedUpPk:count 0
attr interpolationmode none
attr source packetSentToUpper
attr title "packets passed to higher layer, count"
scalar Wireless_12_1.hostD.lo[0].lo passedUpPk:sum(packetBytes) 0
attr interpolationmode none
attr source packetSentToUpper
attr title "packets passed to higher layer, sum(packetBytes)"
scalar Wireless_12_1.hostD.wlan[0].mac.queue packetPopped:count 1
attr interpolationmode none
attr title "packet popped, count"
scalar Wireless_12_1.hostD.wlan[0].mac.queue packetPopped:sum(packetBytes) 59
attr interpolationmode none
attr title "packet popped, sum(packetBytes)"
statistic Wireless_12_1.hostD.wlan[0].mac.queue queueingTime:histogram
field count 1
field mean 0
field stddev -nan
field min 0
field max 0
field sum 0
field sqrsum 0
attr interpolationmode none
attr source queueingTime(packetPopped)
attr title "queueing times, histogram"
attr unit s
bin	-inf	0
bin	-0.5	0
bin	-0.48	0
bin	-0.46	0
bin	-0.44	0
bin	-0.42	0
bin	-0.4	0
bin	-0.38	0
bin	-0.36	0
bin	-0.34	0
bin	-0.32	0
bin	-0.3	0
bin	-0.28	0
bin	-0.26	0
bin	-0.24	0
bin	-0.22	0
bin	-0.2	0
bin	-0.18	0
bin	-0.16	0
bin	-0.14	0
bin	-0.12	0
bin	-0.1	0
bin	-0.08	0
bin	-0.06	0
bin	-0.04	0
bin	-0.02	0
bin	0	1
bin	0.02	0
bin	0.04	0
bin	0.06	0
bin	0.08	0
bin	0.1	0
bin	0.12	0
bin	0.14	0
bin	0.16	0
bin	0.18	0
bin	0.2	0
bin	0.22	0
bin	0.24	0
bin	0.26	0
bin	0.28	0
bin	0.3	0
bin	0.32	0
bin	0.34	0
bin	0.36	0
bin	0.38	0
bin	0.4	0
bin	0.42	0
bin	0.44	0
bin	0.46	0
bin	0.48	0
bin	0.5	0
scalar Wireless_12_1.hostD.wlan[0].mac.queue queueLength:max 1
attr interpolationmode sample-hold
attr source "count(packetPushed) - count(packetPopped) - count(packetRemoved) - count(packetDropped)"
attr title "queue length, max"
scalar Wireless_12_1.hostD.wlan[0].mac.queue queueLength:timeavg 0
attr interpolationmode sample-hold
attr source "count(packetPushed) - count(packetPopped) - count(packetRemoved) - count(packetDropped)"
attr title "queue length, timeavg"
scalar Wireless_12_1.hostD.wlan[0].mac.queue packetPushed:count 1
attr interpolationmode none
attr title "packet pushed, count"
scalar Wireless_12_1.hostD.wlan[0].mac.queue packetPushed:sum(packetBytes) 59
attr interpolationmode none
attr title "packet pushed, sum(packetBytes)"
scalar Wireless_12_1.hostD.wlan[0].mac.queue packetDropQueueOverflow:count 0
attr interpolationmode none
attr source packetDropReasonIsQueueOverflow(packetDropped)
attr title "packet drops: queue overflow, count"
scalar Wireless_12_1.hostD.wlan[0].mac.queue packetDropQueueOverflow:sum(packetBytes) 0
attr interpolationmode none
attr source packetDropReasonIsQueueOverflow(packetDropped)
attr title "packet drops: queue overflow, sum(packetBytes)"
scalar Wireless_12_1.hostD.wlan[0].mac.queue packetRemoved:count 0
attr interpolationmode none
attr title "packets removed, count"
scalar Wireless_12_1.hostD.wlan[0].mac.queue packetRemoved:sum(packetBytes) 0
attr interpolationmode none
attr title "packets removed, sum(packetBytes)"
scalar Wireless_12_1.hostD.wlan[0].mac numRetry 0
scalar Wireless_12_1.hostD.wlan[0].mac numSentWithoutRetry 1
scalar Wireless_12_1.hostD.wlan[0].mac numGivenUp 0
scalar Wireless_12_1.hostD.wlan[0].mac numCollision 0
scalar Wireless_12_1.hostD.wlan[0].mac numSent 1
scalar Wireless_12_1.hostD.wlan[0].mac numReceived 0
scalar Wireless_12_1.hostD.wlan[0].mac numSentBroadcast 0
scalar Wireless_12_1.hostD.wlan[0].mac numReceivedBroadcast 1
scalar Wireless_12_1.hostD.wlan[0].mac packetDropIncorrectlyReceived:count 0
attr interpolationmode none
attr source packetDropReasonIsIncorrectlyReceived(packetDropped)
attr title "packet drop: incorrectly received, count"
scalar Wireless_12_1.hostD.wlan[0].mac packetDropIncorrectlyReceived:sum(packetBytes) 0
attr interpolationmode none
attr source packetDropReasonIsIncorrectlyReceived(packetDropped)
attr title "packet drop: incorrectly received, sum(packetBytes)"
scalar Wireless_12_1.hostD.wlan[0].mac packetDropNotAddressedToUs:count 12
attr interpolationmode none
attr source packetDropReasonIsNotAddressedToUs(packetDropped)
attr title "packet drop: not addressed to us, count"
scalar Wireless_12_1.hostD.wlan[0].mac packetDropNotAddressedToUs:sum(packetBytes) 708
attr interpolationmode none
attr source packetDropReasonIsNotAddressedToUs(packetDropped)
attr title "packet drop: not addressed to us, sum(packetBytes)"
scalar Wireless_12_1.hostD.wlan[0].mac packetDropQueueOverflow:count 0
attr interpolationmode none
attr source packetDropReasonIsQueueOverflow(packetDropped)
attr title "packet drop: queue overflow, count"
scalar Wireless_12_1.hostD.wlan[0].mac packetDropQueueOverflow:sum(packetBytes) 0
attr interpolationmode none
attr source packetDropReasonIsQueueOverflow(packetDropped)
attr title "packet drop: queue overflow, sum(packetBytes)"
scalar Wireless_12_1.hostD.wlan[0].mac packetDropRetryLimitReached:count 0
attr interpolationmode none
attr source packetDropReasonIsRetryLimitReached(packetDropped)
attr title "packet drop: retry limit reached, count"
scalar Wireless_12_1.hostD.wlan[0].mac packetDropRetryLimitReached:sum(packetBytes) 0
attr interpolationmode none
attr source packetDropReasonIsRetryLimitReached(packetDropped)
attr title "packet drop: retry limit reached, sum(packetBytes)"
scalar Wireless_12_1.hostD.wlan[0].mac linkBroken:count 0
attr interpolationmode none
attr source linkBroken
attr title "link break, count"
scalar Wireless_12_1.hostD.wlan[0].radio radioMode:count 5
attr interpolationmode sample-hold
attr source radioModeChanged
attr title "Radio mode, count"
scalar Wireless_12_1.hostD.wlan[0].radio receptionState:count 54
attr interpolationmode sample-hold
attr source receptionStateChanged
attr title "Radio reception state, count"
scalar Wireless_12_1.hostD.wlan[0].radio transmissionState:count 4
attr interpolationmode sample-hold
attr source transmissionStateChanged
attr title "Radio transmission state, count"
statistic Wireless_12_1.hostD.wlan[0].radio minSnir:histogram
field count 25
field mean 198536.43332183
field stddev 177011.18391619
field min 6.3977463282294
field max 743425.18533312
field sum 4963410.8330457
field sqrsum 1737408905457.7
attr source minimumSnir(packetSentToUpper)
attr title "Min SNIR, histogram"
bin	-inf	0
bin	0	1
bin	20000	0
bin	40000	3
bin	60000	2
bin	80000	2
bin	100000	0
bin	120000	0
bin	140000	0
bin	160000	0
bin	180000	15
bin	200000	0
bin	220000	0
bin	240000	0
bin	260000	0
bin	280000	0
bin	300000	0
bin	320000	0
bin	340000	0
bin	360000	0
bin	380000	0
bin	400000	0
bin	420000	0
bin	440000	0
bin	460000	0
bin	480000	0
bin	500000	0
bin	520000	0
bin	540000	0
bin	560000	0
bin	580000	0
bin	600000	0
bin	620000	0
bin	640000	0
bin	660000	0
bin	680000	0
bin	700000	0
bin	720000	0
bin	740000	2
bin	760000	0
bin	780000	0
bin	800000	0
bin	820000	0
bin	840000	0
bin	860000	0
bin	880000	0
bin	900000	0
bin	920000	0
bin	940000	0
statistic Wireless_12_1.hostD.wlan[0].radio packetErrorRate:histogram
field count 25
field mean 4.5236524904757e-06
field stddev 2.2618262452379e-05
field min 0
field max 0.00011309131226189
field sum 0.00011309131226189
field sqrsum 1.2789644909117e-08
attr source packetErrorRate(packetSentToUpper)
attr title "Packet error rate, histogram"
bin	-inf	0
bin	0	24
bin	2e-06	0
bin	4e-06	0
bin	6e-06	0
bin	8e-06	0
bin	1e-05	0
bin	1.2e-05	0
bin	1.4e-05	0
bin	1.6e-05	0
bin	1.8e-05	0
bin	2e-05	0
bin	2.2e-05	0
bin	2.4e-05	0
bin	2.6e-05	0
bin	2.8e-05	0
bin	3e-05	0
bin	3.2e-05	0
bin	3.4e-05	0
bin	3.6e-05	0
bin	3.8e-05	0
bin	4e-05	0
bin	4.2e-05	0
bin	4.4e-05	0
bin	4.6e-05	0
bin	4.8e-05	0
bin	5e-05	0
bin	5.2e-05	0
bin	5.4e-05	0
bin	5.6e-05	0
bin	5.8e-05	0
bin	6e-05	0
bin	6.2e-05	0
bin	6.4e-05	0
bin	6.6e-05	0
bin	6.8e-05	0
bin	7e-05	0
bin	7.2e-05	0
bin	7.4e-05	0
bin	7.6e-05	0
bin	7.8e-05	0
bin	8e-05	0
bin	8.2e-05	0
bin	8.4e-05	0
bin	8.6e-05	0
bin	8.8e-05	0
bin	9e-05	0
bin	9.2e-05	0
bin	9.4e-05	0
bin	9.6e-05	0
bin	9.8e-05	0
bin	0.0001	0
bin	0.000102	0
bin	0.000104	0
bin	0.000106	0
bin	0.000108	0
bin	0.00011	0
bin	0.000112	1
bin	0.000114	0
bin	0.000116	0
bin	0.000118	0
bin	0.00012	0
bin	0.000122	0
bin	0.000124	0
bin	0.000126	0
bin	0.000128	0
bin	0.00013	0
bin	0.000132	0
bin	0.000134	0
bin	0.000136	0
bin	0.000138	0
bin	0.00014	0
bin	0.000142	0
statistic Wireless_12_1.hostD.wlan[0].radio bitErrorRate:histogram
field count 25
field mean 8.4401265391727e-09
field stddev 4.2200632695864e-08
field min 0
field max 2.1100316347932e-07
field sum 2.1100316347932e-07
field sqrsum 4.452233499828e-14
attr source bitErrorRate(packetSentToUpper)
attr title "Bit error rate, histogram"
bin	-inf	0
bin	0	24
bin	5e-09	0
bin	1e-08	0
bin	1.5e-08	0
bin	2e-08	0
bin	2.5e-08	0
bin	3e-08	0
bin	3.5e-08	0
bin	4e-08	0
bin	4.5e-08	0
bin	5e-08	0
bin	5.5e-08	0
bin	6e-08	0
bin	6.5e-08	0
bin	7e-08	0
bin	7.5e-08	0
bin	8e-08	0
bin	8.5e-08	0
bin	9e-08	0
bin	9.5e-08	0
bin	1e-07	0
bin	1.05e-07	0
bin	1.1e-07	0
bin	1.15e-07	0
bin	1.2e-07	0
bin	1.25e-07	0
bin	1.3e-07	0
bin	1.35e-07	0
bin	1.4e-07	0
bin	1.45e-07	0
bin	1.5e-07	0
bin	1.55e-07	0
bin	1.6e-07	0
bin	1.65e-07	0
bin	1.7e-07	0
bin	1.75e-07	0
bin	1.8e-07	0
bin	1.85e-07	0
bin	1.9e-07	0
bin	1.95e-07	0
bin	2e-07	0
bin	2.05e-07	0
bin	2.1e-07	1
bin	2.15e-07	0
bin	2.2e-07	0
bin	2.25e-07	0
bin	2.3e-07	0
bin	2.35e-07	0
bin	2.4e-07	0
bin	2.45e-07	0
bin	2.5e-07	0
bin	2.55e-07	0
bin	2.6e-07	0
bin	2.65e-07	0
statistic Wireless_12_1.hostD.wlan[0].radio symbolErrorRate:histogram
field count 25
field mean 8.4401265391727e-09
field stddev 4.2200632695864e-08
field min 0
field max 2.1100316347932e-07
field sum 2.1100316347932e-07
field sqrsum 4.452233499828e-14
attr source symbolErrorRate(packetSentToUpper)
attr title "Symbol error rate, histogram"
bin	-inf	0
bin	0	24
bin	5e-09	0
bin	1e-08	0
bin	1.5e-08	0
bin	2e-08	0
bin	2.5e-08	0
bin	3e-08	0
bin	3.5e-08	0
bin	4e-08	0
bin	4.5e-08	0
bin	5e-08	0
bin	5.5e-08	0
bin	6e-08	0
bin	6.5e-08	0
bin	7e-08	0
bin	7.5e-08	0
bin	8e-08	0
bin	8.5e-08	0
bin	9e-08	0
bin	9.5e-08	0
bin	1e-07	0
bin	1.05e-07	0
bin	1.1e-07	0
bin	1.15e-07	0
bin	1.2e-07	0
bin	1.25e-07	0
bin	1.3e-07	0
bin	1.35e-07	0
bin	1.4e-07	0
bin	1.45e-07	0
bin	1.5e-07	0
bin	1.55e-07	0
bin	1.6e-07	0
bin	1.65e-07	0
bin	1.7e-07	0
bin	1.75e-07	0
bin	1.8e-07	0
bin	1.85e-07	0
bin	1.9e-07	0
bin	1.95e-07	0
bin	2e-07	0
bin	2.05e-07	0
bin	2.1e-07	1
bin	2.15e-07	0
bin	2.2e-07	0
bin	2.25e-07	0
bin	2.3e-07	0
bin	2.35e-07	0
bin	2.4e-07	0
bin	2.45e-07	0
bin	2.5e-07	0
bin	2.55e-07	0
bin	2.6e-07	0
bin	2.65e-07	0
scalar Wireless_12_1.hostD.ipv4.ip packetDropAddressResolutionFailed:count 0
attr interpolationmode none
attr source packetDropReasonIsAddressResolutionFailed(packetDropped)
attr title "packet drop: address resolution failed, count"
scalar Wireless_12_1.hostD.ipv4.ip packetDropAddressResolutionFailed:sum(packetBytes) 0
attr interpolationmode none
attr source packetDropReasonIsAddressResolutionFailed(packetDropped)
attr title "packet drop: address resolution failed, sum(packetBytes)"
scalar Wireless_12_1.hostD.ipv4.ip packetDropHopLimitReached:count 0
attr interpolationmode none
attr source packetDropReasonIsHopLimitReached(packetDropped)
attr title "packet drop: hop limit reached, count"
scalar Wireless_12_1.hostD.ipv4.ip packetDropHopLimitReached:sum(packetBytes) 0
attr interpolationmode none
attr source packetDropReasonIsHopLimitReached(packetDropped)
attr title "packet drop: hop limit reached, sum(packetBytes)"
scalar Wireless_12_1.hostD.ipv4.ip packetDropForwardingDisabled:count 0
attr interpolationmode none
attr source packetDropReasonIsForwardingDisabled(packetDropped)
attr title "packet drop: forwarding disabled, count"
scalar Wireless_12_1.hostD.ipv4.ip packetDropForwardingDisabled:sum(packetBytes) 0
attr interpolationmode none
attr source packetDropReasonIsForwardingDisabled(packetDropped)
attr title "packet drop: forwarding disabled, sum(packetBytes)"
scalar Wireless_12_1.hostD.ipv4.ip packetDropNoInterfaceFound:count 0
attr interpolationmode none
attr source packetDropReasonIsNoInterfaceFound(packetDropped)
attr title "packet drop: no interface found, count"
scalar Wireless_12_1.hostD.ipv4.ip packetDropNoInterfaceFound:sum(packetBytes) 0
attr interpolationmode none
attr source packetDropReasonIsNoInterfaceFound(packetDropped)
attr title "packet drop: no interface found, sum(packetBytes)"
scalar Wireless_12_1.hostD.ipv4.ip packetDropNoRouteFound:count 0
attr interpolationmode none
attr source packetDropReasonIsNoRouteFound(packetDropped)
attr title "packet drop: no route found, count"
scalar Wireless_12_1.hostD.ipv4.ip packetDropNoRouteFound:sum(packetBytes) 0
attr interpolationmode none
attr source packetDropReasonIsNoRouteFound(packetDropped)
attr title "packet drop: no route found, sum(packetBytes)"
scalar Wireless_12_1.hostD.ipv4.ip packetDropUndefined:count 0
attr interpolationmode none
attr source packetDropReasonIsUndefined(packetDropped)
attr title "packet drop: undefined, count"
scalar Wireless_12_1.hostD.ipv4.ip packetDropUndefined:sum(packetBytes) 0
attr interpolationmode none
attr source packetDropReasonIsUndefined(packetDropped)
attr title "packet drop: undefined, sum(packetBytes)"
scalar Wireless_12_1.hostD.udp packetReceived:count 1
attr interpolationmode none
attr source packetReceived
attr title "packets received, count"
scalar Wireless_12_1.hostD.udp packetReceived:sum(packetBytes) 12
attr interpolationmode none
attr source packetReceived
attr title "packets received, sum(packetBytes)"
scalar Wireless_12_1.hostD.udp packetSent:count 1
attr interpolationmode none
attr source packetSent
attr title "packets sent, count"
scalar Wireless_12_1.hostD.udp packetSent:sum(packetBytes) 12
attr interpolationmode none
attr source packetSent
attr title "packets sent, sum(packetBytes)"
scalar Wireless_12_1.hostD.udp passedUpPk:count 1
attr interpolationmode none
attr source packetSentToUpper
attr title "packets passed up, count"
scalar Wireless_12_1.hostD.udp droppedPkWrongPort:count 0
attr interpolationmode none
attr source packetDropReasonIsNoPortFound(packetDropped)
attr title "packets dropped (wrong port), count"
scalar Wireless_12_1.hostD.udp droppedPkBadChecksum:count 0
attr interpolationmode none
attr source packetDropReasonIsIncorrectlyReceived(packetDropped)
attr title "packets dropped (checksum error), count"
scalar Wireless_12_1.hostE.lo[0].lo rcvdPkFromHl:count 0
attr interpolationmode none
attr source packetReceivedFromUpper
attr title "packets received from higher layer, count"
scalar Wireless_12_1.hostE.lo[0].lo rcvdPkFromHl:sum(packetBytes) 0
attr interpolationmode none
attr source packetReceivedFromUpper
attr title "packets received from higher layer, sum(packetBytes)"
scalar Wireless_12_1.hostE.lo[0].lo passedUpPk:count 0
attr interpolationmode none
attr source packetSentToUpper
attr title "packets passed to higher layer, count"
scalar Wireless_12_1.hostE.lo[0].lo passedUpPk:sum(packetBytes) 0
attr interpolationmode none
attr source packetSentToUpper
attr title "packets passed to higher layer, sum(packetBytes)"
scalar Wireless_12_1.hostE.wlan[0].mac.queue packetPopped:count 1
attr interpolationmode none
attr title "packet popped, count"
scalar Wireless_12_1.hostE.wlan[0].mac.queue packetPopped:sum(packetBytes) 59
attr interpolationmode none
attr title "packet popped, sum(packetBytes)"
statistic Wireless_12_1.hostE.wlan[0].mac.queue queueingTime:histogram
field count 1
field mean 0
field stddev -nan
field min 0
field max 0
field sum 0
field sqrsum 0
attr interpolationmode none
attr source queueingTime(packetPopped)
attr title "queueing times, histogram"
attr unit s
bin	-inf	0
bin	-0.5	0
bin	-0.48	0
bin	-0.46	0
bin	-0.44	0
bin	-0.42	0
bin	-0.4	0
bin	-0.38	0
bin	-0.36	0
bin	-0.34	0
bin	-0.32	0
bin	-0.3	0
bin	-0.28	0
bin	-0.26	0
bin	-0.24	0
bin	-0.22	0
bin	-0.2	0
bin	-0.18	0
bin	-0.16	0
bin	-0.14	0
bin	-0.12	0
bin	-0.1	0
bin	-0.08	0
bin	-0.06	0
bin	-0.04	0
bin	-0.02	0
bin	0	1
bin	0.02	0
bin	0.04	0
bin	0.06	0
bin	0.08	0
bin	0.1	0
bin	0.12	0
bin	0.14	0
bin	0.16	0
bin	0.18	0
bin	0.2	0
bin	0.22	0
bin	0.24	0
bin	0.26	0
bin	0.28	0
bin	0.3	0
bin	0.32	0
bin	0.34	0
bin	0.36	0
bin	0.38	0
bin	0.4	0
bin	0.42	0
bin	0.44	0
bin	0.46	0
bin	0.48	0
bin	0.5	0
scalar Wireless_12_1.hostE.wlan[0].mac.queue queueLength:max 1
attr interpolationmode sample-hold
attr source "count(packetPushed) - count(packetPopped) - count(packetRemoved) - count(packetDropped)"
attr title "queue length, max"
scalar Wireless_12_1.hostE.wlan[0].mac.queue queueLength:timeavg 0
attr interpolationmode sample-hold
attr source "count(packetPushed) - count(packetPopped) - count(packetRemoved) - count(packetDropped)"
attr title "queue length, timeavg"
scalar Wireless_12_1.hostE.wlan[0].mac.queue packetPushed:count 1
attr interpolationmode none
attr title "packet pushed, count"
scalar Wireless_12_1.hostE.wlan[0].mac.queue packetPushed:sum(packetBytes) 59
attr interpolationmode none
attr title "packet pushed, sum(packetBytes)"
scalar Wireless_12_1.hostE.wlan[0].mac.queue packetDropQueueOverflow:count 0
attr interpolationmode none
attr source packetDropReasonIsQueueOverflow(packetDropped)
attr title "packet drops: queue overflow, count"
scalar Wireless_12_1.hostE.wlan[0].mac.queue packetDropQueueOverflow:sum(packetBytes) 0
attr interpolationmode none
attr source packetDropReasonIsQueueOverflow(packetDropped)
attr title "packet drops: queue overflow, sum(packetBytes)"
scalar Wireless_12_1.hostE.wlan[0].mac.queue packetRemoved:count 0
attr interpolationmode none
attr title "packets removed, count"
scalar Wireless_12_1.hostE.wlan[0].mac.queue packetRemoved:sum(packetBytes) 0
attr interpolationmode none
attr title "packets removed, sum(packetBytes)"
scalar Wireless_12_1.hostE.wlan[0].mac numRetry 0
scalar Wireless_12_1.hostE.wlan[0].mac numSentWithoutRetry 1
scalar Wireless_12_1.hostE.wlan[0].mac numGivenUp 0
scalar Wireless_12_1.hostE.wlan[0].mac numCollision 1
scalar Wireless_12_1.hostE.wlan[0].mac numSent 1
scalar Wireless_12_1.hostE.wlan[0].mac numReceived 0
scalar Wireless_12_1.hostE.wlan[0].mac numSentBroadcast 0
scalar Wireless_12_1.hostE.wlan[0].mac numReceivedBroadcast 1
scalar Wireless_12_1.hostE.wlan[0].mac packetDropIncorrectlyReceived:count 1
attr interpolationmode none
attr source packetDropReasonIsIncorrectlyReceived(packetDropped)
attr title "packet drop: incorrectly received, count"
scalar Wireless_12_1.hostE.wlan[0].mac packetDropIncorrectlyReceived:sum(packetBytes) 59
attr interpolationmode none
attr source packetDropReasonIsIncorrectlyReceived(packetDropped)
attr title "packet drop: incorrectly received, sum(packetBytes)"
scalar Wireless_12_1.hostE.wlan[0].mac packetDropNotAddressedToUs:count 11
attr interpolationmode none
attr source packetDropReasonIsNotAddressedToUs(packetDropped)
attr title "packet drop: not addressed to us, count"
scalar Wireless_12_1.hostE.wlan[0].mac packetDropNotAddressedToUs:sum(packetBytes) 649
attr interpolationmode none
attr source packetDropReasonIsNotAddressedToUs(packetDropped)
attr title "packet drop: not addressed to us, sum(packetBytes)"
scalar Wireless_12_1.hostE.wlan[0].mac packetDropQueueOverflow:count 0
attr interpolationmode none
attr source packetDropReasonIsQueueOverflow(packetDropped)
attr title "packet drop: queue overflow, count"
scalar Wireless_12_1.hostE.wlan[0].mac packetDropQueueOverflow:sum(packetBytes) 0
attr interpolationmode none
attr source packetDropReasonIsQueueOverflow(packetDropped)
attr title "packet drop: queue overflow, sum(packetBytes)"
scalar Wireless_12_1.hostE.wlan[0].mac packetDropRetryLimitReached:count 0
attr interpolationmode none
attr source packetDropReasonIsRetryLimitReached(packetDropped)
attr title "packet drop: retry limit reached, count"
scalar Wireless_12_1.hostE.wlan[0].mac packetDropRetryLimitReached:sum(packetBytes) 0
attr interpolationmode none
attr source packetDropReasonIsRetryLimitReached(packetDropped)
attr title "packet drop: retry limit reached, sum(packetBytes)"
scalar Wireless_12_1.hostE.wlan[0].mac linkBroken:count 0
attr interpolationmode none
attr source linkBroken
attr title "link break, count"
scalar Wireless_12_1.hostE.wlan[0].radio radioMode:count 5
attr interpolationmode sample-hold
attr source radioModeChanged
attr title "Radio mode, count"
scalar Wireless_12_1.hostE.wlan[0].radio receptionState:count 54
attr interpolationmode sample-hold
attr source receptionStateChanged
attr title "Radio reception state, count"
scalar Wireless_12_1.hostE.wlan[0].radio transmissionState:count 4
attr interpolationmode sample-hold
attr source transmissionStateChanged
attr title "Radio transmission state, count"
statistic Wireless_12_1.hostE.wlan[0].radio minSnir:histogram
field count 25
field mean 198536.22532962
field stddev 177011.42669076
field min 1.1999927714629
field max 743425.18533312
field sum 4963405.6332405
field sqrsum 1737408903501.6
attr source minimumSnir(packetSentToUpper)
attr title "Min SNIR, histogram"
bin	-inf	0
bin	0	1
bin	20000	0
bin	40000	3
bin	60000	2
bin	80000	2
bin	100000	0
bin	120000	0
bin	140000	0
bin	160000	0
bin	180000	15
bin	200000	0
bin	220000	0
bin	240000	0
bin	260000	0
bin	280000	0
bin	300000	0
bin	320000	0
bin	340000	0
bin	360000	0
bin	380000	0
bin	400000	0
bin	420000	0
bin	440000	0
bin	460000	0
bin	480000	0
bin	500000	0
bin	520000	0
bin	540000	0
bin	560000	0
bin	580000	0
bin	600000	0
bin	620000	0
bin	640000	0
bin	660000	0
bin	680000	0
bin	700000	0
bin	720000	0
bin	740000	2
bin	760000	0
bin	780000	0
bin	800000	0
bin	820000	0
bin	840000	0
bin	860000	0
bin	880000	0
bin	900000	0
bin	920000	0
bin	940000	0
statistic Wireless_12_1.hostE.wlan[0].radio packetErrorRate:histogram
field count 25
field mean 0.039981560263567
field stddev 0.19990780131784
field min 0
field max 0.99953900658918
field sum 0.99953900658918
field sqrsum 0.99907822569329
attr source packetErrorRate(packetSentToUpper)
attr title "Packet error rate, histogram"
bin	-inf	0
bin	0	24
bin	0.02	0
bin	0.04	0
bin	0.06	0
bin	0.08	0
bin	0.1	0
bin	0.12	0
bin	0.14	0
bin	0.16	0
bin	0.18	0
bin	0.2	0
bin	0.22	0
bin	0.24	0
bin	0.26	0
bin	0.28	0
bin	0.3	0
bin	0.32	0
bin	0.34	0
bin	0.36	0
bin	0.38	0
bin	0.4	0
bin	0.42	0
bin	0.44	0
bin	0.46	0
bin	0.48	0
bin	0.5	0
bin	0.52	0
bin	0.54	0
bin	0.56	0
bin	0.58	0
bin	0.6	0
bin	0.62	0
bin	0.64	0
bin	0.66	0
bin	0.68	0
bin	0.7	0
bin	0.72	0
bin	0.74	0
bin	0.76	0
bin	0.78	0
bin	0.8	0
bin	0.82	0
bin	0.84	0
bin	0.86	0
bin	0.88	0
bin	0.9	0
bin	0.92	0
bin	0.94	0
bin	0.96	0
bin	0.98	1
bin	1	0
bin	1.02	0
bin	1.04	0
bin	1.06	0
bin	1.08	0
bin	1.1	0
bin	1.12	0
bin	1.14	0
bin	1.16	0
bin	1.18	0
bin	1.2	0
bin	1.22	0
bin	1.24	0
bin	1.26	0
statistic Wireless_12_1.hostE.wlan[0].radio bitErrorRate:histogram
field count 25
field mean 0.00056920429104257
field stddev 0.0028460214552129
field min 0
field max 0.014230107276064
field sum 0.014230107276064
field sqrsum 0.0002024959530883
attr source bitErrorRate(packetSentToUpper)
attr title "Bit error rate, histogram"
bin	-inf	0
bin	0	24
bin	0.0002	0
bin	0.0004	0
bin	0.0006	0
bin	0.0008	0
bin	0.001	0
bin	0.0012	0
bin	0.0014	0
bin	0.0016	0
bin	0.0018	0
bin	0.002	0
bin	0.0022	0
bin	0.0024	0
bin	0.0026	0
bin	0.0028	0
bin	0.003	0
bin	0.0032	0
bin	0.0034	0
bin	0.0036	0
bin	0.0038	0
bin	0.004	0
bin	0.0042	0
bin	0.0044	0
bin	0.0046	0
bin	0.0048	0
bin	0.005	0
bin	0.0052	0
bin	0.0054	0
bin	0.0056	0
bin	0.0058	0
bin	0.006	0
bin	0.0062	0
bin	0.0064	0
bin	0.0066	0
bin	0.0068	0
bin	0.007	0
bin	0.0072	0
bin	0.0074	0
bin	0.0076	0
bin	0.0078	0
bin	0.008	0
bin	0.0082	0
bin	0.0084	0
bin	0.0086	0
bin	0.0088	0
bin	0.009	0
bin	0.0092	0
bin	0.0094	0
bin	0.0096	0
bin	0.0098	0
bin	0.01	0
bin	0.0102	0
bin	0.0104	0
bin	0.0106	0
bin	0.0108	0
bin	0.011	0
bin	0.0112	0
bin	0.0114	0
bin	0.0116	0
bin	0.0118	0
bin	0.012	0
bin	0.0122	0
bin	0.0124	0
bin	0.0126	0
bin	0.0128	0
bin	0.013	0
bin	0.0132	0
bin	0.0134	0
bin	0.0136	0
bin	0.0138	0
bin	0.014	0
bin	0.0142	1
bin	0.0144	0
bin	0.0146	0
bin	0.0148	0
bin	0.015	0
bin	0.0152	0
bin	0.0154	0
bin	0.0156	0
bin	0.0158	0
bin	0.016	0
bin	0.0162	0
bin	0.0164	0
bin	0.0166	0
bin	0.0168	0
bin	0.017	0
bin	0.0172	0
bin	0.0174	0
bin	0.0176	0
bin	0.0178	0
statistic Wireless_12_1.hostE.wlan[0].radio symbolErrorRate:histogram
field count 25
field mean 0.00056920429104257
field stddev 0.0028460214552129
field min 0
field max 0.014230107276064
field sum 0.014230107276064
field sqrsum 0.0002024959530883
attr source symbolErrorRate(packetSentToUpper)
attr title "Symbol error rate, histogram"
bin	-inf	0
bin	0	24
bin	0.0002	0
bin	0.0004	0
bin	0.0006	0
bin	0.0008	0
bin	0.001	0
bin	0.0012	0
bin	0.0014	0
bin	0.0016	0
bin	0.0018	0
bin	0.002	0
bin	0.0022	0
bin	0.0024	0
bin	0.0026	0
bin	0.0028	0
bin	0.003	0
bin	0.0032	0
bin	0.0034	0
bin	0.0036	0
bin	0.0038	0
bin	0.004	0
bin	0.0042	0
bin	0.0044	0
bin	0.0046	0
bin	0.0048	0
bin	0.005	0
bin	0.0052	0
bin	0.0054	0
bin	0.0056	0
bin	0.0058	0
bin	0.006	0
bin	0.0062	0
bin	0.0064	0
bin	0.0066	0
bin	0.0068	0
bin	0.007	0
bin	0.0072	0
bin	0.0074	0
bin	0.0076	0
bin	0.0078	0
bin	0.008	0
bin	0.0082	0
bin	0.0084	0
bin	0.0086	0
bin	0.0088	0
bin	0.009	0
bin	0.0092	0
bin	0.0094	0
bin	0.0096	0
bin	0.0098	0
bin	0.01	0
bin	0.0102	0
bin	0.0104	0
bin	0.0106	0
bin	0.0108	0
bin	0.011	0
bin	0.0112	0
bin	0.0114	0
bin	0.0116	0
bin	0.0118	0
bin	0.012	0
bin	0.0122	0
bin	0.0124	0
bin	0.0126	0
bin	0.0128	0
bin	0.013	0
bin	0.0132	0
bin	0.0134	0
bin	0.0136	0
bin	0.0138	0
bin	0.014	0
bin	0.0142	1
bin	0.0144	0
bin	0.0146	0
bin	0.0148	0
bin	0.015	0
bin	0.0152	0
bin	0.0154	0
bin	0.0156	0
bin	0.0158	0
bin	0.016	0
bin	0.0162	0
bin	0.0164	0
bin	0.0166	0
bin	0.0168	0
bin	0.017	0
bin	0.0172	0
bin	0.0174	0
bin	0.0176	0
bin	0.0178	0
scalar Wireless_12_1.hostE.ipv4.ip packetDropAddressResolutionFailed:count 0
attr interpolationmode none
attr source packetDropReasonIsAddressResolutionFailed(packetDropped)
attr title "packet drop: address resolution failed, count"
scalar Wireless_12_1.hostE.ipv4.ip packetDropAddressResolutionFailed:sum(packetBytes) 0
attr interpolationmode none
attr source packetDropReasonIsAddressResolutionFailed(packetDropped)
attr title "packet drop: address resolution failed, sum(packetBytes)"
scalar Wireless_12_1.hostE.ipv4.ip packetDropHopLimitReached:count 0
attr interpolationmode none
attr source packetDropReasonIsHopLimitReached(packetDropped)
attr title "packet drop: hop limit reached, count"
scalar Wireless_12_1.hostE.ipv4.ip packetDropHopLimitReached:sum(packetBytes) 0
attr interpolationmode none
attr source packetDropReasonIsHopLimitReached(packetDropped)
attr title "packet drop: hop limit reached, sum(packetBytes)"
scalar Wireless_12_1.hostE.ipv4.ip packetDropForwardingDisabled:count 0
attr interpolationmode none
attr source packetDropReasonIsForwardingDisabled(packetDropped)
attr title "packet drop: forwarding disabled, count"
scalar Wireless_12_1.hostE.ipv4.ip packetDropForwardingDisabled:sum(packetBytes) 0
attr interpolationmode none
attr source packetDropReasonIsForwardingDisabled(packetDropped)
attr title "packet drop: forwarding disabled, sum(packetBytes)"
scalar Wireless_12_1.hostE.ipv4.ip packetDropNoInterfaceFound:count 0
attr interpolationmode none
attr source packetDropReasonIsNoInterfaceFound(packetDropped)
attr title "packet drop: no interface found, count"
scalar Wireless_12_1.hostE.ipv4.ip packetDropNoInterfaceFound:sum(packetBytes) 0
attr interpolationmode none
attr source packetDropReasonIsNoInterfaceFound(packetDropped)
attr title "packet drop: no interface found, sum(packetBytes)"
scalar Wireless_12_1.hostE.ipv4.ip packetDropNoRouteFound:count 0
attr interpolationmode none
attr source packetDropReasonIsNoRouteFound(packetDropped)
attr title "packet drop: no route found, count"
scalar Wireless_12_1.hostE.ipv4.ip packetDropNoRouteFound:sum(packetBytes) 0
attr interpolationmode none
attr source packetDropReasonIsNoRouteFound(packetDropped)
attr title "packet drop: no route found, sum(packetBytes)"
scalar Wireless_12_1.hostE.ipv4.ip packetDropUndefined:count 0
attr interpolationmode none
attr source packetDropReasonIsUndefined(packetDropped)
attr title "packet drop: undefined, count"
scalar Wireless_12_1.hostE.ipv4.ip packetDropUndefined:sum(packetBytes) 0
attr interpolationmode none
attr source packetDropReasonIsUndefined(packetDropped)
attr title "packet drop: undefined, sum(packetBytes)"
scalar Wireless_12_1.hostE.udp packetReceived:count 1
attr interpolationmode none
attr source packetReceived
attr title "packets received, count"
scalar Wireless_12_1.hostE.udp packetReceived:sum(packetBytes) 12
attr interpolationmode none
attr source packetReceived
attr title "packets received, sum(packetBytes)"
scalar Wireless_12_1.hostE.udp packetSent:count 1
attr interpolationmode none
attr source packetSent
attr title "packets sent, count"
scalar Wireless_12_1.hostE.udp packetSent:sum(packetBytes) 12
attr interpolationmode none
attr source packetSent
attr title "packets sent, sum(packetBytes)"
scalar Wireless_12_1.hostE.udp passedUpPk:count 1
attr interpolationmode none
attr source packetSentToUpper
attr title "packets passed up, count"
scalar Wireless_12_1.hostE.udp droppedPkWrongPort:count 0
attr interpolationmode none
attr source packetDropReasonIsNoPortFound(packetDropped)
attr title "packets dropped (wrong port), count"
scalar Wireless_12_1.hostE.udp droppedPkBadChecksum:count 0
attr interpolationmode none
attr source packetDropReasonIsIncorrectlyReceived(packetDropped)
attr title "packets dropped (checksum error), count"
scalar Wireless_12_1.hostF.lo[0].lo rcvdPkFromHl:count 0
attr interpolationmode none
attr source packetReceivedFromUpper
attr title "packets received from higher layer, count"
scalar Wireless_12_1.hostF.lo[0].lo rcvdPkFromHl:sum(packetBytes) 0
attr interpolationmode none
attr source packetReceivedFromUpper
attr title "packets received from higher layer, sum(packetBytes)"
scalar Wireless_12_1.hostF.lo[0].lo passedUpPk:count 0
attr interpolationmode none
attr source packetSentToUpper
attr title "packets passed to higher layer, count"
scalar Wireless_12_1.hostF.lo[0].lo passedUpPk:sum(packetBytes) 0
attr interpolationmode none
attr source packetSentToUpper
attr title "packets passed to higher layer, sum(packetBytes)"
scalar Wireless_12_1.hostF.wlan[0].mac.queue packetPopped:count 1
attr interpolationmode none
attr title "packet popped, count"
scalar Wireless_12_1.hostF.wlan[0].mac.queue packetPopped:sum(packetBytes) 59
attr interpolationmode none
attr title "packet popped, sum(packetBytes)"
statistic Wireless_12_1.hostF.wlan[0].mac.queue queueingTime:histogram
field count 1
field mean 0
field stddev -nan
field min 0
field max 0
field sum 0
field sqrsum 0
attr interpolationmode none
attr source queueingTime(packetPopped)
attr title "queueing times, histogram"
attr unit s
bin	-inf	0
bin	-0.5	0
bin	-0.48	0
bin	-0.46	0
bin	-0.44	0
bin	-0.42	0
bin	-0.4	0
bin	-0.38	0
bin	-0.36	0
bin	-0.34	0
bin	-0.32	0
bin	-0.3	0
bin	-0.28	0
bin	-0.26	0
bin	-0.24	0
bin	-0.22	0
bin	-0.2	0
bin	-0.18	0
bin	-0.16	0
bin	-0.14	0
bin	-0.12	0
bin	-0.1	0
bin	-0.08	0
bin	-0.06	0
bin	-0.04	0
bin	-0.02	0
bin	0	1
bin	0.02	0
bin	0.04	0
bin	0.06	0
bin	0.08	0
bin	0.1	0
bin	0.12	0
bin	0.14	0
bin	0.16	0
bin	0.18	0
bin	0.2	0
bin	0.22	0
bin	0.24	0
bin	0.26	0
bin	0.28	0
bin	0.3	0
bin	0.32	0
bin	0.34	0
bin	0.36	0
bin	0.38	0
bin	0.4	0
bin	0.42	0
bin	0.44	0
bin	0.46	0
bin	0.48	0
bin	0.5	0
scalar Wireless_12_1.hostF.wlan[0].mac.queue queueLength:max 1
attr interpolationmode sample-hold
attr source "count(packetPushed) - count(packetPopped) - count(packetRemoved) - count(packetDropped)"
attr title "queue length, max"
scalar Wireless_12_1.hostF.wlan[0].mac.queue queueLength:timeavg 0
attr interpolationmode sample-hold
attr source "count(packetPushed) - count(packetPopped) - count(packetRemoved) - count(packetDropped)"
attr title "queue length, timeavg"
scalar Wireless_12_1.hostF.wlan[0].mac.queue packetPushed:count 1
attr interpolationmode none
attr title "packet pushed, count"
scalar Wireless_12_1.hostF.wlan[0].mac.queue packetPushed:sum(packetBytes) 59
attr interpolationmode none
attr title "packet pushed, sum(packetBytes)"
scalar Wireless_12_1.hostF.wlan[0].mac.queue packetDropQueueOverflow:count 0
attr interpolationmode none
attr source packetDropReasonIsQueueOverflow(packetDropped)
attr title "packet drops: queue overflow, count"
scalar Wireless_12_1.hostF.wlan[0].mac.queue packetDropQueueOverflow:sum(packetBytes) 0
attr interpolationmode none
attr source packetDropReasonIsQueueOverflow(packetDropped)
attr title "packet drops: queue overflow, sum(packetBytes)"
scalar Wireless_12_1.hostF.wlan[0].mac.queue packetRemoved:count 0
attr interpolationmode none
attr title "packets removed, count"
scalar Wireless_12_1.hostF.wlan[0].mac.queue packetRemoved:sum(packetBytes) 0
attr interpolationmode none
attr title "packets removed, sum(packetBytes)"
scalar Wireless_12_1.hostF.wlan[0].mac numRetry 1
scalar Wireless_12_1.hostF.wlan[0].mac numSentWithoutRetry 0
scalar Wireless_12_1.hostF.wlan[0].mac numGivenUp 0
scalar Wireless_12_1.hostF.wlan[0].mac numCollision 0
scalar Wireless_12_1.hostF.wlan[0].mac numSent 1
scalar Wireless_12_1.hostF.wlan[0].mac numReceived 0
scalar Wireless_12_1.hostF.wlan[0].mac numSentBroadcast 0
scalar Wireless_12_1.hostF.wlan[0].mac numReceivedBroadcast 1
scalar Wireless_12_1.hostF.wlan[0].mac packetDropIncorrectlyReceived:count 0
attr interpolationmode none
attr source packetDropReasonIsIncorrectlyReceived(packetDropped)
attr title "packet drop: incorrectly received, count"
scalar Wireless_12_1.hostF.wlan[0].mac packetDropIncorrectlyReceived:sum(packetBytes) 0
attr interpolationmode none
attr source packetDropReasonIsIncorrectlyReceived(packetDropped)
attr title "packet drop: incorrectly received, sum(packetBytes)"
scalar Wireless_12_1.hostF.wlan[0].mac packetDropNotAddressedToUs:count 11
attr interpolationmode none
attr source packetDropReasonIsNotAddressedToUs(packetDropped)
[...]
field sqrsum 0.00012627981798251
attr source symbolErrorRate(packetSentToUpper)
attr title "Symbol error rate, histogram"
bin	-inf	0
bin	0	24
bin	0.0002	0
bin	0.0004	0
bin	0.0006	0
bin	0.0008	0
bin	0.001	0
bin	0.0012	0
bin	0.0014	0
bin	0.0016	0
bin	0.0018	0
bin	0.002	0
bin	0.0022	0
bin	0.0024	0
bin	0.0026	0
bin	0.0028	0
bin	0.003	0
bin	0.0032	0
bin	0.0034	0
bin	0.0036	0
bin	0.0038	0
bin	0.004	0
bin	0.0042	0
bin	0.0044	0
bin	0.0046	0
bin	0.0048	0
bin	0.005	0
bin	0.0052	0
bin	0.0054	0
bin	0.0056	0
bin	0.0058	0
bin	0.006	0
bin	0.0062	0
bin	0.0064	0
bin	0.0066	0
bin	0.0068	0
bin	0.007	0
bin	0.0072	0
bin	0.0074	0
bin	0.0076	0
bin	0.0078	0
bin	0.008	0
bin	0.0082	0
bin	0.0084	0
bin	0.0086	0
bin	0.0088	0
bin	0.009	0
bin	0.0092	0
bin	0.0094	0
bin	0.0096	0
bin	0.0098	0
bin	0.01	0
bin	0.0102	0
bin	0.0104	0
bin	0.0106	0
bin	0.0108	0
bin	0.011	0
bin	0.0112	1
bin	0.0114	0
bin	0.0116	0
bin	0.0118	0
bin	0.012	0
bin	0.0122	0
bin	0.0124	0
bin	0.0126	0
bin	0.0128	0
bin	0.013	0
bin	0.0132	0
bin	0.0134	0
bin	0.0136	0
bin	0.0138	0
bin	0.014	0
bin	0.0142	0
scalar Wireless_12_1.hostL.ipv4.ip packetDropAddressResolutionFailed:count 0
attr interpolationmode none
attr source packetDropReasonIsAddressResolutionFailed(packetDropped)
attr title "packet drop: address resolution failed, count"
scalar Wireless_12_1.hostL.ipv4.ip packetDropAddressResolutionFailed:sum(packetBytes) 0
attr interpolationmode none
attr source packetDropReasonIsAddressResolutionFailed(packetDropped)
attr title "packet drop: address resolution failed, sum(packetBytes)"
scalar Wireless_12_1.hostL.ipv4.ip packetDropHopLimitReached:count 0
attr interpolationmode none
attr source packetDropReasonIsHopLimitReached(packetDropped)
attr title "packet drop: hop limit reached, count"
scalar Wireless_12_1.hostL.ipv4.ip packetDropHopLimitReached:sum(packetBytes) 0
attr interpolationmode none
attr source packetDropReasonIsHopLimitReached(packetDropped)
attr title "packet drop: hop limit reached, sum(packetBytes)"
scalar Wireless_12_1.hostL.ipv4.ip packetDropForwardingDisabled:count 0
attr interpolationmode none
attr source packetDropReasonIsForwardingDisabled(packetDropped)
attr title "packet drop: forwarding disabled, count"
scalar Wireless_12_1.hostL.ipv4.ip packetDropForwardingDisabled:sum(packetBytes) 0
attr interpolationmode none
attr source packetDropReasonIsForwardingDisabled(packetDropped)
attr title "packet drop: forwarding disabled, sum(packetBytes)"
scalar Wireless_12_1.hostL.ipv4.ip packetDropNoInterfaceFound:count 0
attr interpolationmode none
attr source packetDropReasonIsNoInterfaceFound(packetDropped)
attr title "packet drop: no interface found, count"
scalar Wireless_12_1.hostL.ipv4.ip packetDropNoInterfaceFound:sum(packetBytes) 0
attr interpolationmode none
attr source packetDropReasonIsNoInterfaceFound(packetDropped)
attr title "packet drop: no interface found, sum(packetBytes)"
scalar Wireless_12_1.hostL.ipv4.ip packetDropNoRouteFound:count 0
attr interpolationmode none
attr source packetDropReasonIsNoRouteFound(packetDropped)
attr title "packet drop: no route found, count"
scalar Wireless_12_1.hostL.ipv4.ip packetDropNoRouteFound:sum(packetBytes) 0
attr interpolationmode none
attr source packetDropReasonIsNoRouteFound(packetDropped)
attr title "packet drop: no route found, sum(packetBytes)"
scalar Wireless_12_1.hostL.ipv4.ip packetDropUndefined:count 0
attr interpolationmode none
attr source packetDropReasonIsUndefined(packetDropped)
attr title "packet drop: undefined, count"
scalar Wireless_12_1.hostL.ipv4.ip packetDropUndefined:sum(packetBytes) 0
attr interpolationmode none
attr source packetDropReasonIsUndefined(packetDropped)
attr title "packet drop: undefined, sum(packetBytes)"
scalar Wireless_12_1.hostL.udp packetReceived:count 1
attr interpolationmode none
attr source packetReceived
attr title "packets received, count"
scalar Wireless_12_1.hostL.udp packetReceived:sum(packetBytes) 12
attr interpolationmode none
attr source packetReceived
attr title "packets received, sum(packetBytes)"
scalar Wireless_12_1.hostL.udp packetSent:count 1
attr interpolationmode none
attr source packetSent
attr title "packets sent, count"
scalar Wireless_12_1.hostL.udp packetSent:sum(packetBytes) 12
attr interpolationmode none
attr source packetSent
attr title "packets sent, sum(packetBytes)"
scalar Wireless_12_1.hostL.udp passedUpPk:count 1
attr interpolationmode none
attr source packetSentToUpper
attr title "packets passed up, count"
scalar Wireless_12_1.hostL.udp droppedPkWrongPort:count 0
attr interpolationmode none
attr source packetDropReasonIsNoPortFound(packetDropped)
attr title "packets dropped (wrong port), count"
scalar Wireless_12_1.hostL.udp droppedPkBadChecksum:count 0
attr interpolationmode none
attr source packetDropReasonIsIncorrectlyReceived(packetDropped)
attr title "packets dropped (checksum error), count"
scalar Wireless_12_1.hostM.lo[0].lo rcvdPkFromHl:count 0
attr interpolationmode none
attr source packetReceivedFromUpper
attr title "packets received from higher layer, count"
scalar Wireless_12_1.hostM.lo[0].lo rcvdPkFromHl:sum(packetBytes) 0
attr interpolationmode none
attr source packetReceivedFromUpper
attr title "packets received from higher layer, sum(packetBytes)"
scalar Wireless_12_1.hostM.lo[0].lo passedUpPk:count 0
attr interpolationmode none
attr source packetSentToUpper
attr title "packets passed to higher layer, count"
scalar Wireless_12_1.hostM.lo[0].lo passedUpPk:sum(packetBytes) 0
attr interpolationmode none
attr source packetSentToUpper
attr title "packets passed to higher layer, sum(packetBytes)"
scalar Wireless_12_1.hostM.wlan[0].mac.queue packetPopped:count 1
attr interpolationmode none
attr title "packet popped, count"
scalar Wireless_12_1.hostM.wlan[0].mac.queue packetPopped:sum(packetBytes) 59
attr interpolationmode none
attr title "packet popped, sum(packetBytes)"
statistic Wireless_12_1.hostM.wlan[0].mac.queue queueingTime:histogram
field count 1
field mean 0
field stddev -nan
field min 0
field max 0
field sum 0
field sqrsum 0
attr interpolationmode none
attr source queueingTime(packetPopped)
attr title "queueing times, histogram"
attr unit s
bin	-inf	0
bin	-0.5	0
bin	-0.48	0
bin	-0.46	0
bin	-0.44	0
bin	-0.42	0
bin	-0.4	0
bin	-0.38	0
bin	-0.36	0
bin	-0.34	0
bin	-0.32	0
bin	-0.3	0
bin	-0.28	0
bin	-0.26	0
bin	-0.24	0
bin	-0.22	0
bin	-0.2	0
bin	-0.18	0
bin	-0.16	0
bin	-0.14	0
bin	-0.12	0
bin	-0.1	0
bin	-0.08	0
bin	-0.06	0
bin	-0.04	0
bin	-0.02	0
bin	0	1
bin	0.02	0
bin	0.04	0
bin	0.06	0
bin	0.08	0
bin	0.1	0
bin	0.12	0
bin	0.14	0
bin	0.16	0
bin	0.18	0
bin	0.2	0
bin	0.22	0
bin	0.24	0
bin	0.26	0
bin	0.28	0
bin	0.3	0
bin	0.32	0
bin	0.34	0
bin	0.36	0
bin	0.38	0
bin	0.4	0
bin	0.42	0
bin	0.44	0
bin	0.46	0
bin	0.48	0
bin	0.5	0
scalar Wireless_12_1.hostM.wlan[0].mac.queue queueLength:max 1
attr interpolationmode sample-hold
attr source "count(packetPushed) - count(packetPopped) - count(packetRemoved) - count(packetDropped)"
attr title "queue length, max"
scalar Wireless_12_1.hostM.wlan[0].mac.queue queueLength:timeavg 0
attr interpolationmode sample-hold
attr source "count(packetPushed) - count(packetPopped) - count(packetRemoved) - count(packetDropped)"
attr title "queue length, timeavg"
scalar Wireless_12_1.hostM.wlan[0].mac.queue packetPushed:count 1
attr interpolationmode none
attr title "packet pushed, count"
scalar Wireless_12_1.hostM.wlan[0].mac.queue packetPushed:sum(packetBytes) 59
attr interpolationmode none
attr title "packet pushed, sum(packetBytes)"
scalar Wireless_12_1.hostM.wlan[0].mac.queue packetDropQueueOverflow:count 0
attr interpolationmode none
attr source packetDropReasonIsQueueOverflow(packetDropped)
attr title "packet drops: queue overflow, count"
scalar Wireless_12_1.hostM.wlan[0].mac.queue packetDropQueueOverflow:sum(packetBytes) 0
attr interpolationmode none
attr source packetDropReasonIsQueueOverflow(packetDropped)
attr title "packet drops: queue overflow, sum(packetBytes)"
scalar Wireless_12_1.hostM.wlan[0].mac.queue packetRemoved:count 0
attr interpolationmode none
attr title "packets removed, count"
scalar Wireless_12_1.hostM.wlan[0].mac.queue packetRemoved:sum(packetBytes) 0
attr interpolationmode none
attr title "packets removed, sum(packetBytes)"
scalar Wireless_12_1.hostM.wlan[0].mac numRetry 0
scalar Wireless_12_1.hostM.wlan[0].mac numSentWithoutRetry 1
scalar Wireless_12_1.hostM.wlan[0].mac numGivenUp 0
scalar Wireless_12_1.hostM.wlan[0].mac numCollision 0
scalar Wireless_12_1.hostM.wlan[0].mac numSent 1
scalar Wireless_12_1.hostM.wlan[0].mac numReceived 0
scalar Wireless_12_1.hostM.wlan[0].mac numSentBroadcast 0
scalar Wireless_12_1.hostM.wlan[0].mac numReceivedBroadcast 1
scalar Wireless_12_1.hostM.wlan[0].mac packetDropIncorrectlyReceived:count 0
attr interpolationmode none
attr source packetDropReasonIsIncorrectlyReceived(packetDropped)
attr title "packet drop: incorrectly received, count"
scalar Wireless_12_1.hostM.wlan[0].mac packetDropIncorrectlyReceived:sum(packetBytes) 0
attr interpolationmode none
attr source packetDropReasonIsIncorrectlyReceived(packetDropped)
attr title "packet drop: incorrectly received, sum(packetBytes)"
scalar Wireless_12_1.hostM.wlan[0].mac packetDropNotAddressedToUs:count 12
attr interpolationmode none
attr source packetDropReasonIsNotAddressedToUs(packetDropped)
attr title "packet drop: not addressed to us, count"
scalar Wireless_12_1.hostM.wlan[0].mac packetDropNotAddressedToUs:sum(packetBytes) 708
attr interpolationmode none
attr source packetDropReasonIsNotAddressedToUs(packetDropped)
attr title "packet drop: not addressed to us, sum(packetBytes)"
scalar Wireless_12_1.hostM.wlan[0].mac packetDropQueueOverflow:count 0
attr interpolationmode none
attr source packetDropReasonIsQueueOverflow(packetDropped)
attr title "packet drop: queue overflow, count"
scalar Wireless_12_1.hostM.wlan[0].mac packetDropQueueOverflow:sum(packetBytes) 0
attr interpolationmode none
attr source packetDropReasonIsQueueOverflow(packetDropped)
attr title "packet drop: queue overflow, sum(packetBytes)"
scalar Wireless_12_1.hostM.wlan[0].mac packetDropRetryLimitReached:count 0
attr interpolationmode none
attr source packetDropReasonIsRetryLimitReached(packetDropped)
attr title "packet drop: retry limit reached, count"
scalar Wireless_12_1.hostM.wlan[0].mac packetDropRetryLimitReached:sum(packetBytes) 0
attr interpolationmode none
attr source packetDropReasonIsRetryLimitReached(packetDropped)
attr title "packet drop: retry limit reached, sum(packetBytes)"
scalar Wireless_12_1.hostM.wlan[0].mac linkBroken:count 0
attr interpolationmode none
attr source linkBroken
attr title "link break, count"
scalar Wireless_12_1.hostM.wlan[0].radio radioMode:count 5
attr interpolationmode sample-hold
attr source radioModeChanged
attr title "Radio mode, count"
scalar Wireless_12_1.hostM.wlan[0].radio receptionState:count 54
attr interpolationmode sample-hold
attr source receptionStateChanged
attr title "Radio reception state, count"
scalar Wireless_12_1.hostM.wlan[0].radio transmissionState:count 4
attr interpolationmode sample-hold
attr source transmissionStateChanged
attr title "Radio transmission state, count"
statistic Wireless_12_1.hostM.wlan[0].radio minSnir:histogram
field count 25
field mean 198536.35654934
field stddev 177011.27360987
field min 4.4784339917772
field max 743425.18533312
field sum 4963408.9137334
field sqrsum 1737408905436.8
attr source minimumSnir(packetSentToUpper)
attr title "Min SNIR, histogram"
bin	-inf	0
bin	0	1
bin	20000	0
bin	40000	3
bin	60000	2
bin	80000	2
bin	100000	0
bin	120000	0
bin	140000	0
bin	160000	0
bin	180000	15
bin	200000	0
bin	220000	0
bin	240000	0
bin	260000	0
bin	280000	0
bin	300000	0
bin	320000	0
bin	340000	0
bin	360000	0
bin	380000	0
bin	400000	0
bin	420000	0
bin	440000	0
bin	460000	0
bin	480000	0
bin	500000	0
bin	520000	0
bin	540000	0
bin	560000	0
bin	580000	0
bin	600000	0
bin	620000	0
bin	640000	0
bin	660000	0
bin	680000	0
bin	700000	0
bin	720000	0
bin	740000	2
bin	760000	0
bin	780000	0
bin	800000	0
bin	820000	0
bin	840000	0
bin	860000	0
bin	880000	0
bin	900000	0
bin	920000	0
bin	940000	0
statistic Wireless_12_1.hostM.wlan[0].radio packetErrorRate:histogram
field count 25
field mean 0.00024702488924387
field stddev 0.0012351244462194
field min 0
field max 0.0061756222310968
field sum 0.0061756222310968
field sqrsum 3.8138309941217e-05
attr source packetErrorRate(packetSentToUpper)
attr title "Packet error rate, histogram"
bin	-inf	0
bin	0	24
bin	0.0001	0
bin	0.0002	0
bin	0.0003	0
bin	0.0004	0
bin	0.0005	0
bin	0.0006	0
bin	0.0007	0
bin	0.0008	0
bin	0.0009	0
bin	0.001	0
bin	0.0011	0
bin	0.0012	0
bin	0.0013	0
bin	0.0014	0
bin	0.0015	0
bin	0.0016	0
bin	0.0017	0
bin	0.0018	0
bin	0.0019	0
bin	0.002	0
bin	0.0021	0
bin	0.0022	0
bin	0.0023	0
bin	0.0024	0
bin	0.0025	0
bin	0.0026	0
bin	0.0027	0
bin	0.0028	0
bin	0.0029	0
bin	0.003	0
bin	0.0031	0
bin	0.0032	0
bin	0.0033	0
bin	0.0034	0
bin	0.0035	0
bin	0.0036	0
bin	0.0037	0
bin	0.0038	0
bin	0.0039	0
bin	0.004	0
bin	0.0041	0
bin	0.0042	0
bin	0.0043	0
bin	0.0044	0
bin	0.0045	0
bin	0.0046	0
bin	0.0047	0
bin	0.0048	0
bin	0.0049	0
bin	0.005	0
bin	0.0051	0
bin	0.0052	0
bin	0.0053	0
bin	0.0054	0
bin	0.0055	0
bin	0.0056	0
bin	0.0057	0
bin	0.0058	0
bin	0.0059	0
bin	0.006	0
bin	0.0061	1
bin	0.0062	0
bin	0.0063	0
bin	0.0064	0
bin	0.0065	0
bin	0.0066	0
bin	0.0067	0
bin	0.0068	0
bin	0.0069	0
bin	0.007	0
bin	0.0071	0
bin	0.0072	0
bin	0.0073	0
bin	0.0074	0
bin	0.0075	0
bin	0.0076	0
bin	0.0077	0
bin	0.0078	0
statistic Wireless_12_1.hostM.wlan[0].radio bitErrorRate:histogram
field count 25
field mean 4.6229361665305e-07
field stddev 2.3114680832653e-06
field min 0
field max 1.1557340416326e-05
field sum 1.1557340416326e-05
field sqrsum 1.3357211749885e-10
attr source bitErrorRate(packetSentToUpper)
attr title "Bit error rate, histogram"
bin	-inf	0
bin	0	24
bin	2e-07	0
bin	4e-07	0
bin	6e-07	0
bin	8e-07	0
bin	1e-06	0
bin	1.2e-06	0
bin	1.4e-06	0
bin	1.6e-06	0
bin	1.8e-06	0
bin	2e-06	0
bin	2.2e-06	0
bin	2.4e-06	0
bin	2.6e-06	0
bin	2.8e-06	0
bin	3e-06	0
bin	3.2e-06	0
bin	3.4e-06	0
bin	3.6e-06	0
bin	3.8e-06	0
bin	4e-06	0
bin	4.2e-06	0
bin	4.4e-06	0
bin	4.6e-06	0
bin	4.8e-06	0
bin	5e-06	0
bin	5.2e-06	0
bin	5.4e-06	0
bin	5.6e-06	0
bin	5.8e-06	0
bin	6e-06	0
bin	6.2e-06	0
bin	6.4e-06	0
bin	6.6e-06	0
bin	6.8e-06	0
bin	7e-06	0
bin	7.2e-06	0
bin	7.4e-06	0
bin	7.6e-06	0
bin	7.8e-06	0
bin	8e-06	0
bin	8.2e-06	0
bin	8.4e-06	0
bin	8.6e-06	0
bin	8.8e-06	0
bin	9e-06	0
bin	9.2e-06	0
bin	9.4e-06	0
bin	9.6e-06	0
bin	9.8e-06	0
bin	1e-05	0
bin	1.02e-05	0
bin	1.04e-05	0
bin	1.06e-05	0
bin	1.08e-05	0
bin	1.1e-05	0
bin	1.12e-05	0
bin	1.14e-05	1
bin	1.16e-05	0
bin	1.18e-05	0
bin	1.2e-05	0
bin	1.22e-05	0
bin	1.24e-05	0
bin	1.26e-05	0
bin	1.28e-05	0
bin	1.3e-05	0
bin	1.32e-05	0
bin	1.34e-05	0
bin	1.36e-05	0
bin	1.38e-05	0
bin	1.4e-05	0
bin	1.42e-05	0
bin	1.44e-05	0
bin	1.46e-05	0
statistic Wireless_12_1.hostM.wlan[0].radio symbolErrorRate:histogram
field count 25
field mean 4.6229361665305e-07
field stddev 2.3114680832653e-06
field min 0
field max 1.1557340416326e-05
field sum 1.1557340416326e-05
field sqrsum 1.3357211749885e-10
attr source symbolErrorRate(packetSentToUpper)
attr title "Symbol error rate, histogram"
bin	-inf	0
bin	0	24
bin	2e-07	0
bin	4e-07	0
bin	6e-07	0
bin	8e-07	0
bin	1e-06	0
bin	1.2e-06	0
bin	1.4e-06	0
bin	1.6e-06	0
bin	1.8e-06	0
bin	2e-06	0
bin	2.2e-06	0
bin	2.4e-06	0
bin	2.6e-06	0
bin	2.8e-06	0
bin	3e-06	0
bin	3.2e-06	0
bin	3.4e-06	0
bin	3.6e-06	0
bin	3.8e-06	0
bin	4e-06	0
bin	4.2e-06	0
bin	4.4e-06	0
bin	4.6e-06	0
bin	4.8e-06	0
bin	5e-06	0
bin	5.2e-06	0
bin	5.4e-06	0
bin	5.6e-06	0
bin	5.8e-06	0
bin	6e-06	0
bin	6.2e-06	0
bin	6.4e-06	0
bin	6.6e-06	0
bin	6.8e-06	0
bin	7e-06	0
bin	7.2e-06	0
bin	7.4e-06	0
bin	7.6e-06	0
bin	7.8e-06	0
bin	8e-06	0
bin	8.2e-06	0
bin	8.4e-06	0
bin	8.6e-06	0
bin	8.8e-06	0
bin	9e-06	0
bin	9.2e-06	0
bin	9.4e-06	0
bin	9.6e-06	0
bin	9.8e-06	0
bin	1e-05	0
bin	1.02e-05	0
bin	1.04e-05	0
bin	1.06e-05	0
bin	1.08e-05	0
bin	1.1e-05	0
bin	1.12e-05	0
bin	1.14e-05	1
bin	1.16e-05	0
bin	1.18e-05	0
bin	1.2e-05	0
bin	1.22e-05	0
bin	1.24e-05	0
bin	1.26e-05	0
bin	1.28e-05	0
bin	1.3e-05	0
bin	1.32e-05	0
bin	1.34e-05	0
bin	1.36e-05	0
bin	1.38e-05	0
bin	1.4e-05	0
bin	1.42e-05	0
bin	1.44e-05	0
bin	1.46e-05	0
scalar Wireless_12_1.hostM.ipv4.ip packetDropAddressResolutionFailed:count 0
attr interpolationmode none
attr source packetDropReasonIsAddressResolutionFailed(packetDropped)
attr title "packet drop: address resolution failed, count"
scalar Wireless_12_1.hostM.ipv4.ip packetDropAddressResolutionFailed:sum(packetBytes) 0
attr interpolationmode none
attr source packetDropReasonIsAddressResolutionFailed(packetDropped)
attr title "packet drop: address resolution failed, sum(packetBytes)"
scalar Wireless_12_1.hostM.ipv4.ip packetDropHopLimitReached:count 0
attr interpolationmode none
attr source packetDropReasonIsHopLimitReached(packetDropped)
attr title "packet drop: hop limit reached, count"
scalar Wireless_12_1.hostM.ipv4.ip packetDropHopLimitReached:sum(packetBytes) 0
attr interpolationmode none
attr source packetDropReasonIsHopLimitReached(packetDropped)
attr title "packet drop: hop limit reached, sum(packetBytes)"
scalar Wireless_12_1.hostM.ipv4.ip packetDropForwardingDisabled:count 0
attr interpolationmode none
attr source packetDropReasonIsForwardingDisabled(packetDropped)
attr title "packet drop: forwarding disabled, count"
scalar Wireless_12_1.hostM.ipv4.ip packetDropForwardingDisabled:sum(packetBytes) 0
attr interpolationmode none
attr source packetDropReasonIsForwardingDisabled(packetDropped)
attr title "packet drop: forwarding disabled, sum(packetBytes)"
scalar Wireless_12_1.hostM.ipv4.ip packetDropNoInterfaceFound:count 0
attr interpolationmode none
attr source packetDropReasonIsNoInterfaceFound(packetDropped)
attr title "packet drop: no interface found, count"
scalar Wireless_12_1.hostM.ipv4.ip packetDropNoInterfaceFound:sum(packetBytes) 0
attr interpolationmode none
attr source packetDropReasonIsNoInterfaceFound(packetDropped)
attr title "packet drop: no interface found, sum(packetBytes)"
scalar Wireless_12_1.hostM.ipv4.ip packetDropNoRouteFound:count 0
attr interpolationmode none
attr source packetDropReasonIsNoRouteFound(packetDropped)
attr title "packet drop: no route found, count"
scalar Wireless_12_1.hostM.ipv4.ip packetDropNoRouteFound:sum(packetBytes) 0
attr interpolationmode none
attr source packetDropReasonIsNoRouteFound(packetDropped)
attr title "packet drop: no route found, sum(packetBytes)"
scalar Wireless_12_1.hostM.ipv4.ip packetDropUndefined:count 0
attr interpolationmode none
attr source packetDropReasonIsUndefined(packetDropped)
attr title "packet drop: undefined, count"
scalar Wireless_12_1.hostM.ipv4.ip packetDropUndefined:sum(packetBytes) 0
attr interpolationmode none
attr source packetDropReasonIsUndefined(packetDropped)
attr title "packet drop: undefined, sum(packetBytes)"
scalar Wireless_12_1.hostM.udp packetReceived:count 1
attr interpolationmode none
attr source packetReceived
attr title "packets received, count"
scalar Wireless_12_1.hostM.udp packetReceived:sum(packetBytes) 12
attr interpolationmode none
attr source packetReceived
attr title "packets received, sum(packetBytes)"
scalar Wireless_12_1.hostM.udp packetSent:count 1
attr interpolationmode none
attr source packetSent
attr title "packets sent, count"
scalar Wireless_12_1.hostM.udp packetSent:sum(packetBytes) 12
attr interpolationmode none
attr source packetSent
attr title "packets sent, sum(packetBytes)"
scalar Wireless_12_1.hostM.udp passedUpPk:count 1
attr interpolationmode none
attr source packetSentToUpper
attr title "packets passed up, count"
scalar Wireless_12_1.hostM.udp droppedPkWrongPort:count 0
attr interpolationmode none
attr source packetDropReasonIsNoPortFound(packetDropped)
attr title "packets dropped (wrong port), count"
scalar Wireless_12_1.hostM.udp droppedPkBadChecksum:count 0
attr interpolationmode none
attr source packetDropReasonIsIncorrectlyReceived(packetDropped)
attr title "packets dropped (checksum error), count"

