version 2
run Wireless01-247-20200717-17:55:28-14563
attr configname Wireless01
attr datetime 20200717-17:55:28
attr experiment Wireless01
attr inifile omnetpp.ini
attr iterationvars $name=Wireless_12_5
attr iterationvarsf name=Wireless#_12#_5-
attr measurement $name=Wireless_12_5
attr network "${name=WirelessA, Wireless_3_1, Wireless_3_5, Wireless_3_10, Wireless_6_1,Wireless_6_5,Wireless_6_10,Wireless_12_1,Wireless_12_5,Wireless_12_10}"
attr processid 14563
attr repetition 7
attr replication #7
attr resultdir results
attr runnumber 247
attr seedset 247
itervar name Wireless_12_5
param *.hostA.numApps 1
param *.hostA.app[0].typename "\"TDOAApp\""
param *.hostA.app[0].destAddresses "\"Broadcast\""
param *.hostA.app[0].destPort 5000
param *.hostA.app[0].localPort 6000
param *.hostA.app[0].isReceiver false
param *.hostA.app[0].Nome_arquivo "\"Wireless_12_5.csv\""
param *.host*.numApps 1
param *.host*.app[0].typename "\"TDOAApp\""
param *.host*.app[0].localPort 5000
param *.host*.app[0].destPort 6000
param *.host*.app[0].destAddresses "\"hostA\""
param *.host*.app[0].isReceiver true
param *.host*.wlan[0].typename "\"WirelessInterface\""
param *.radioMedium.typename "\"ApskScalarRadioMedium\""
param *.radioMedium.backgroundNoise.power -90dBm
param *.radioMedium.mediumLimitCache.centerFrequency 2GHz
param *.host*.wlan[0].radio.typename "\"ApskScalarRadio\""
param *.host*.wlan[0].radio.centerFrequency 2GHz
param *.host*.wlan[0].radio.bandwidth 2MHz
param *.host*.wlan[0].radio.transmitter.power 1.4mW
param *.host*.wlan[0].radio.transmitter.preambleDuration 10us
param *.host*.wlan[0].radio.transmitter.headerLength 8B
param *.host*.wlan[0].radio.receiver.sensitivity -85dBm
param *.host*.wlan[0].radio.receiver.energyDetection -85dBm
param *.host*.wlan[0].radio.receiver.snirThreshold 4dB
param *.host*.wlan[0].mac.typename "\"CsmaCaMac\""
param *.host*.wlan[0].mac.ackTimeout 300us
param *.host*.wlan[0].mac.useAck true
param *.host*.wlan[0].mac.fullDuplex false
param *.host*.wlan[0].radio.receiver.ignoreInterference true
param *.host*.wlan[0].mac.headerLength 23B
param *.host*.**.bitrate 1Mbps
param *.host*.ipv4.arp.typename "\"GlobalArp\""
param **.ip.limitedBroadcast true

scalar Wireless_12_5.radioMedium.propagation "Arrival computation count" 372
scalar Wireless_12_5.radioMedium "transmission count" 31
scalar Wireless_12_5.radioMedium "signal send count" 372
scalar Wireless_12_5.radioMedium "reception computation count" 372
scalar Wireless_12_5.radioMedium "interference computation count" 1115
scalar Wireless_12_5.radioMedium "reception decision computation count" 333
scalar Wireless_12_5.radioMedium "listening decision computation count" 416
scalar Wireless_12_5.radioMedium "reception cache hit" 85.519657454262
attr unit %
scalar Wireless_12_5.radioMedium "interference cache hit" 66.666666666667
attr unit %
scalar Wireless_12_5.radioMedium "noise cache hit" 0
attr unit %
scalar Wireless_12_5.radioMedium "snir cache hit" 50
attr unit %
scalar Wireless_12_5.radioMedium "reception decision cache hit" 50
attr unit %
scalar Wireless_12_5.radioMedium "reception result cache hit" 0
attr unit %
scalar Wireless_12_5.hostA.lo[0].lo rcvdPkFromHl:count 1
attr interpolationmode none
attr source packetReceivedFromUpper
attr title "packets received from higher layer, count"
scalar Wireless_12_5.hostA.lo[0].lo rcvdPkFromHl:sum(packetBytes) 32
attr interpolationmode none
attr source packetReceivedFromUpper
attr title "packets received from higher layer, sum(packetBytes)"
scalar Wireless_12_5.hostA.lo[0].lo passedUpPk:count 1
attr interpolationmode none
attr source packetSentToUpper
attr title "packets passed to higher layer, count"
scalar Wireless_12_5.hostA.lo[0].lo passedUpPk:sum(packetBytes) 32
attr interpolationmode none
attr source packetSentToUpper
attr title "packets passed to higher layer, sum(packetBytes)"
scalar Wireless_12_5.hostA.wlan[0].mac.queue packetPopped:count 1
attr interpolationmode none
attr title "packet popped, count"
scalar Wireless_12_5.hostA.wlan[0].mac.queue packetPopped:sum(packetBytes) 59
attr interpolationmode none
attr title "packet popped, sum(packetBytes)"
statistic Wireless_12_5.hostA.wlan[0].mac.queue queueingTime:histogram
field count 1
field mean 0
field stddev -nan
field min 0
field max 0
field sum 0
field sqrsum 0
attr interpolationmode none
attr source queueingTime(packetPopped)
attr title "queueing times, histogram"
attr unit s
bin	-inf	0
bin	-0.5	0
bin	-0.48	0
bin	-0.46	0
bin	-0.44	0
bin	-0.42	0
bin	-0.4	0
bin	-0.38	0
bin	-0.36	0
bin	-0.34	0
bin	-0.32	0
bin	-0.3	0
bin	-0.28	0
bin	-0.26	0
bin	-0.24	0
bin	-0.22	0
bin	-0.2	0
bin	-0.18	0
bin	-0.16	0
bin	-0.14	0
bin	-0.12	0
bin	-0.1	0
bin	-0.08	0
bin	-0.06	0
bin	-0.04	0
bin	-0.02	0
bin	0	1
bin	0.02	0
bin	0.04	0
bin	0.06	0
bin	0.08	0
bin	0.1	0
bin	0.12	0
bin	0.14	0
bin	0.16	0
bin	0.18	0
bin	0.2	0
bin	0.22	0
bin	0.24	0
bin	0.26	0
bin	0.28	0
bin	0.3	0
bin	0.32	0
bin	0.34	0
bin	0.36	0
bin	0.38	0
bin	0.4	0
bin	0.42	0
bin	0.44	0
bin	0.46	0
bin	0.48	0
bin	0.5	0
scalar Wireless_12_5.hostA.wlan[0].mac.queue queueLength:max 1
attr interpolationmode sample-hold
attr source "count(packetPushed) - count(packetPopped) - count(packetRemoved) - count(packetDropped)"
attr title "queue length, max"
scalar Wireless_12_5.hostA.wlan[0].mac.queue queueLength:timeavg 0
attr interpolationmode sample-hold
attr source "count(packetPushed) - count(packetPopped) - count(packetRemoved) - count(packetDropped)"
attr title "queue length, timeavg"
scalar Wireless_12_5.hostA.wlan[0].mac.queue packetPushed:count 1
attr interpolationmode none
attr title "packet pushed, count"
scalar Wireless_12_5.hostA.wlan[0].mac.queue packetPushed:sum(packetBytes) 59
attr interpolationmode none
attr title "packet pushed, sum(packetBytes)"
scalar Wireless_12_5.hostA.wlan[0].mac.queue packetDropQueueOverflow:count 0
attr interpolationmode none
attr source packetDropReasonIsQueueOverflow(packetDropped)
attr title "packet drops: queue overflow, count"
scalar Wireless_12_5.hostA.wlan[0].mac.queue packetDropQueueOverflow:sum(packetBytes) 0
attr interpolationmode none
attr source packetDropReasonIsQueueOverflow(packetDropped)
attr title "packet drops: queue overflow, sum(packetBytes)"
scalar Wireless_12_5.hostA.wlan[0].mac.queue packetRemoved:count 0
attr interpolationmode none
attr title "packets removed, count"
scalar Wireless_12_5.hostA.wlan[0].mac.queue packetRemoved:sum(packetBytes) 0
attr interpolationmode none
attr title "packets removed, sum(packetBytes)"
scalar Wireless_12_5.hostA.wlan[0].mac numRetry 0
scalar Wireless_12_5.hostA.wlan[0].mac numSentWithoutRetry 0
scalar Wireless_12_5.hostA.wlan[0].mac numGivenUp 0
scalar Wireless_12_5.hostA.wlan[0].mac numCollision 3
scalar Wireless_12_5.hostA.wlan[0].mac numSent 0
scalar Wireless_12_5.hostA.wlan[0].mac numReceived 12
scalar Wireless_12_5.hostA.wlan[0].mac numSentBroadcast 1
scalar Wireless_12_5.hostA.wlan[0].mac numReceivedBroadcast 0
scalar Wireless_12_5.hostA.wlan[0].mac packetDropIncorrectlyReceived:count 3
attr interpolationmode none
attr source packetDropReasonIsIncorrectlyReceived(packetDropped)
attr title "packet drop: incorrectly received, count"
scalar Wireless_12_5.hostA.wlan[0].mac packetDropIncorrectlyReceived:sum(packetBytes) 177
attr interpolationmode none
attr source packetDropReasonIsIncorrectlyReceived(packetDropped)
attr title "packet drop: incorrectly received, sum(packetBytes)"
scalar Wireless_12_5.hostA.wlan[0].mac packetDropNotAddressedToUs:count 0
attr interpolationmode none
attr source packetDropReasonIsNotAddressedToUs(packetDropped)
attr title "packet drop: not addressed to us, count"
scalar Wireless_12_5.hostA.wlan[0].mac packetDropNotAddressedToUs:sum(packetBytes) 0
attr interpolationmode none
attr source packetDropReasonIsNotAddressedToUs(packetDropped)
attr title "packet drop: not addressed to us, sum(packetBytes)"
scalar Wireless_12_5.hostA.wlan[0].mac packetDropQueueOverflow:count 0
attr interpolationmode none
attr source packetDropReasonIsQueueOverflow(packetDropped)
attr title "packet drop: queue overflow, count"
scalar Wireless_12_5.hostA.wlan[0].mac packetDropQueueOverflow:sum(packetBytes) 0
attr interpolationmode none
attr source packetDropReasonIsQueueOverflow(packetDropped)
attr title "packet drop: queue overflow, sum(packetBytes)"
scalar Wireless_12_5.hostA.wlan[0].mac packetDropRetryLimitReached:count 0
attr interpolationmode none
attr source packetDropReasonIsRetryLimitReached(packetDropped)
attr title "packet drop: retry limit reached, count"
scalar Wireless_12_5.hostA.wlan[0].mac packetDropRetryLimitReached:sum(packetBytes) 0
attr interpolationmode none
attr source packetDropReasonIsRetryLimitReached(packetDropped)
attr title "packet drop: retry limit reached, sum(packetBytes)"
scalar Wireless_12_5.hostA.wlan[0].mac linkBroken:count 0
attr interpolationmode none
attr source linkBroken
attr title "link break, count"
scalar Wireless_12_5.hostA.wlan[0].radio radioMode:count 29
attr interpolationmode sample-hold
attr source radioModeChanged
attr title "Radio mode, count"
scalar Wireless_12_5.hostA.wlan[0].radio receptionState:count 58
attr interpolationmode sample-hold
attr source receptionStateChanged
attr title "Radio reception state, count"
scalar Wireless_12_5.hostA.wlan[0].radio transmissionState:count 52
attr interpolationmode sample-hold
attr source transmissionStateChanged
attr title "Radio transmission state, count"
statistic Wireless_12_5.hostA.wlan[0].radio minSnir:histogram
field count 15
field mean 6374.6056707889
field stddev 3298.6543866257
field min 0.99987451382592
field max 7968.0071200008
field sum 95619.085061834
field sqrsum 761869652.54448
attr source minimumSnir(packetSentToUpper)
attr title "Min SNIR, histogram"
bin	-inf	0
bin	0	3
bin	200	0
bin	400	0
bin	600	0
bin	800	0
bin	1000	0
bin	1200	0
bin	1400	0
bin	1600	0
bin	1800	0
bin	2000	0
bin	2200	0
bin	2400	0
bin	2600	0
bin	2800	0
bin	3000	0
bin	3200	0
bin	3400	0
bin	3600	0
bin	3800	0
bin	4000	0
bin	4200	0
bin	4400	0
bin	4600	0
bin	4800	0
bin	5000	0
bin	5200	0
bin	5400	0
bin	5600	0
bin	5800	0
bin	6000	0
bin	6200	0
bin	6400	0
bin	6600	0
bin	6800	0
bin	7000	0
bin	7200	0
bin	7400	0
bin	7600	0
bin	7800	12
bin	8000	0
bin	8200	0
bin	8400	0
bin	8600	0
bin	8800	0
bin	9000	0
bin	9200	0
bin	9400	0
bin	9600	0
bin	9800	0
bin	10000	0
statistic Wireless_12_5.hostA.wlan[0].radio packetErrorRate:histogram
field count 15
field mean 0.19999912415256
field stddev 0.41403752242894
field min 0
field max 0.99999562076278
field sum 2.9999868622883
field sqrsum 2.9999737246342
attr source packetErrorRate(packetSentToUpper)
attr title "Packet error rate, histogram"
bin	-inf	0
bin	0	12
bin	0.02	0
bin	0.04	0
bin	0.06	0
bin	0.08	0
bin	0.1	0
bin	0.12	0
bin	0.14	0
bin	0.16	0
bin	0.18	0
bin	0.2	0
bin	0.22	0
bin	0.24	0
bin	0.26	0
bin	0.28	0
bin	0.3	0
bin	0.32	0
bin	0.34	0
bin	0.36	0
bin	0.38	0
bin	0.4	0
bin	0.42	0
bin	0.44	0
bin	0.46	0
bin	0.48	0
bin	0.5	0
bin	0.52	0
bin	0.54	0
bin	0.56	0
bin	0.58	0
bin	0.6	0
bin	0.62	0
bin	0.64	0
bin	0.66	0
bin	0.68	0
bin	0.7	0
bin	0.72	0
bin	0.74	0
bin	0.76	0
bin	0.78	0
bin	0.8	0
bin	0.82	0
bin	0.84	0
bin	0.86	0
bin	0.88	0
bin	0.9	0
bin	0.92	0
bin	0.94	0
bin	0.96	0
bin	0.98	3
bin	1	0
bin	1.02	0
bin	1.04	0
bin	1.06	0
bin	1.08	0
bin	1.1	0
bin	1.12	0
bin	1.14	0
bin	1.16	0
bin	1.18	0
bin	1.2	0
bin	1.22	0
bin	1.24	0
bin	1.26	0
statistic Wireless_12_5.hostA.wlan[0].radio bitErrorRate:histogram
field count 15
field mean 0.0045513816260733
field stddev 0.0094222551227304
field min 0
field max 0.022756908130852
field sum 0.0682707243911
field sqrsum 0.0015536306029618
attr source bitErrorRate(packetSentToUpper)
attr title "Bit error rate, histogram"
bin	-inf	0
bin	0	12
bin	0.0005	0
bin	0.001	0
bin	0.0015	0
bin	0.002	0
bin	0.0025	0
bin	0.003	0
bin	0.0035	0
bin	0.004	0
bin	0.0045	0
bin	0.005	0
bin	0.0055	0
bin	0.006	0
bin	0.0065	0
bin	0.007	0
bin	0.0075	0
bin	0.008	0
bin	0.0085	0
bin	0.009	0
bin	0.0095	0
bin	0.01	0
bin	0.0105	0
bin	0.011	0
bin	0.0115	0
bin	0.012	0
bin	0.0125	0
bin	0.013	0
bin	0.0135	0
bin	0.014	0
bin	0.0145	0
bin	0.015	0
bin	0.0155	0
bin	0.016	0
bin	0.0165	0
bin	0.017	0
bin	0.0175	0
bin	0.018	0
bin	0.0185	0
bin	0.019	0
bin	0.0195	0
bin	0.02	0
bin	0.0205	0
bin	0.021	0
bin	0.0215	0
bin	0.022	0
bin	0.0225	3
bin	0.023	0
bin	0.0235	0
bin	0.024	0
bin	0.0245	0
bin	0.025	0
bin	0.0255	0
bin	0.026	0
bin	0.0265	0
bin	0.027	0
bin	0.0275	0
bin	0.028	0
bin	0.0285	0
statistic Wireless_12_5.hostA.wlan[0].radio symbolErrorRate:histogram
field count 15
field mean 0.0045513816260733
field stddev 0.0094222551227304
field min 0
field max 0.022756908130852
field sum 0.0682707243911
field sqrsum 0.0015536306029618
attr source symbolErrorRate(packetSentToUpper)
attr title "Symbol error rate, histogram"
bin	-inf	0
bin	0	12
bin	0.0005	0
bin	0.001	0
bin	0.0015	0
bin	0.002	0
bin	0.0025	0
bin	0.003	0
bin	0.0035	0
bin	0.004	0
bin	0.0045	0
bin	0.005	0
bin	0.0055	0
bin	0.006	0
bin	0.0065	0
bin	0.007	0
bin	0.0075	0
bin	0.008	0
bin	0.0085	0
bin	0.009	0
bin	0.0095	0
bin	0.01	0
bin	0.0105	0
bin	0.011	0
bin	0.0115	0
bin	0.012	0
bin	0.0125	0
bin	0.013	0
bin	0.0135	0
bin	0.014	0
bin	0.0145	0
bin	0.015	0
bin	0.0155	0
bin	0.016	0
bin	0.0165	0
bin	0.017	0
bin	0.0175	0
bin	0.018	0
bin	0.0185	0
bin	0.019	0
bin	0.0195	0
bin	0.02	0
bin	0.0205	0
bin	0.021	0
bin	0.0215	0
bin	0.022	0
bin	0.0225	3
bin	0.023	0
bin	0.0235	0
bin	0.024	0
bin	0.0245	0
bin	0.025	0
bin	0.0255	0
bin	0.026	0
bin	0.0265	0
bin	0.027	0
bin	0.0275	0
bin	0.028	0
bin	0.0285	0
scalar Wireless_12_5.hostA.ipv4.ip packetDropAddressResolutionFailed:count 0
attr interpolationmode none
attr source packetDropReasonIsAddressResolutionFailed(packetDropped)
attr title "packet drop: address resolution failed, count"
scalar Wireless_12_5.hostA.ipv4.ip packetDropAddressResolutionFailed:sum(packetBytes) 0
attr interpolationmode none
attr source packetDropReasonIsAddressResolutionFailed(packetDropped)
attr title "packet drop: address resolution failed, sum(packetBytes)"
scalar Wireless_12_5.hostA.ipv4.ip packetDropHopLimitReached:count 0
attr interpolationmode none
attr source packetDropReasonIsHopLimitReached(packetDropped)
attr title "packet drop: hop limit reached, count"
scalar Wireless_12_5.hostA.ipv4.ip packetDropHopLimitReached:sum(packetBytes) 0
attr interpolationmode none
attr source packetDropReasonIsHopLimitReached(packetDropped)
attr title "packet drop: hop limit reached, sum(packetBytes)"
scalar Wireless_12_5.hostA.ipv4.ip packetDropForwardingDisabled:count 0
attr interpolationmode none
attr source packetDropReasonIsForwardingDisabled(packetDropped)
attr title "packet drop: forwarding disabled, count"
scalar Wireless_12_5.hostA.ipv4.ip packetDropForwardingDisabled:sum(packetBytes) 0
attr interpolationmode none
attr source packetDropReasonIsForwardingDisabled(packetDropped)
attr title "packet drop: forwarding disabled, sum(packetBytes)"
scalar Wireless_12_5.hostA.ipv4.ip packetDropNoInterfaceFound:count 0
attr interpolationmode none
attr source packetDropReasonIsNoInterfaceFound(packetDropped)
attr title "packet drop: no interface found, count"
scalar Wireless_12_5.hostA.ipv4.ip packetDropNoInterfaceFound:sum(packetBytes) 0
attr interpolationmode none
attr source packetDropReasonIsNoInterfaceFound(packetDropped)
attr title "packet drop: no interface found, sum(packetBytes)"
scalar Wireless_12_5.hostA.ipv4.ip packetDropNoRouteFound:count 0
attr interpolationmode none
attr source packetDropReasonIsNoRouteFound(packetDropped)
attr title "packet drop: no route found, count"
scalar Wireless_12_5.hostA.ipv4.ip packetDropNoRouteFound:sum(packetBytes) 0
attr interpolationmode none
attr source packetDropReasonIsNoRouteFound(packetDropped)
attr title "packet drop: no route found, sum(packetBytes)"
scalar Wireless_12_5.hostA.ipv4.ip packetDropUndefined:count 0
attr interpolationmode none
attr source packetDropReasonIsUndefined(packetDropped)
attr title "packet drop: undefined, count"
scalar Wireless_12_5.hostA.ipv4.ip packetDropUndefined:sum(packetBytes) 0
attr interpolationmode none
attr source packetDropReasonIsUndefined(packetDropped)
attr title "packet drop: undefined, sum(packetBytes)"
scalar Wireless_12_5.hostA.udp packetReceived:count 13
attr interpolationmode none
attr source packetReceived
attr title "packets received, count"
scalar Wireless_12_5.hostA.udp packetReceived:sum(packetBytes) 156
attr interpolationmode none
attr source packetReceived
attr title "packets received, sum(packetBytes)"
scalar Wireless_12_5.hostA.udp packetSent:count 1
attr interpolationmode none
attr source packetSent
attr title "packets sent, count"
scalar Wireless_12_5.hostA.udp packetSent:sum(packetBytes) 12
attr interpolationmode none
attr source packetSent
attr title "packets sent, sum(packetBytes)"
scalar Wireless_12_5.hostA.udp passedUpPk:count 12
attr interpolationmode none
attr source packetSentToUpper
attr title "packets passed up, count"
scalar Wireless_12_5.hostA.udp droppedPkWrongPort:count 1
attr interpolationmode none
attr source packetDropReasonIsNoPortFound(packetDropped)
attr title "packets dropped (wrong port), count"
scalar Wireless_12_5.hostA.udp droppedPkBadChecksum:count 0
attr interpolationmode none
attr source packetDropReasonIsIncorrectlyReceived(packetDropped)
attr title "packets dropped (checksum error), count"
scalar Wireless_12_5.hostB.lo[0].lo rcvdPkFromHl:count 0
attr interpolationmode none
attr source packetReceivedFromUpper
attr title "packets received from higher layer, count"
scalar Wireless_12_5.hostB.lo[0].lo rcvdPkFromHl:sum(packetBytes) 0
attr interpolationmode none
attr source packetReceivedFromUpper
attr title "packets received from higher layer, sum(packetBytes)"
scalar Wireless_12_5.hostB.lo[0].lo passedUpPk:count 0
attr interpolationmode none
attr source packetSentToUpper
attr title "packets passed to higher layer, count"
scalar Wireless_12_5.hostB.lo[0].lo passedUpPk:sum(packetBytes) 0
attr interpolationmode none
attr source packetSentToUpper
attr title "packets passed to higher layer, sum(packetBytes)"
scalar Wireless_12_5.hostB.wlan[0].mac.queue packetPopped:count 1
attr interpolationmode none
attr title "packet popped, count"
scalar Wireless_12_5.hostB.wlan[0].mac.queue packetPopped:sum(packetBytes) 59
attr interpolationmode none
attr title "packet popped, sum(packetBytes)"
statistic Wireless_12_5.hostB.wlan[0].mac.queue queueingTime:histogram
field count 1
field mean 0
field stddev -nan
field min 0
field max 0
field sum 0
field sqrsum 0
attr interpolationmode none
attr source queueingTime(packetPopped)
attr title "queueing times, histogram"
attr unit s
bin	-inf	0
bin	-0.5	0
bin	-0.48	0
bin	-0.46	0
bin	-0.44	0
bin	-0.42	0
bin	-0.4	0
bin	-0.38	0
bin	-0.36	0
bin	-0.34	0
bin	-0.32	0
bin	-0.3	0
bin	-0.28	0
bin	-0.26	0
bin	-0.24	0
bin	-0.22	0
bin	-0.2	0
bin	-0.18	0
bin	-0.16	0
bin	-0.14	0
bin	-0.12	0
bin	-0.1	0
bin	-0.08	0
bin	-0.06	0
bin	-0.04	0
bin	-0.02	0
bin	0	1
bin	0.02	0
bin	0.04	0
bin	0.06	0
bin	0.08	0
bin	0.1	0
bin	0.12	0
bin	0.14	0
bin	0.16	0
bin	0.18	0
bin	0.2	0
bin	0.22	0
bin	0.24	0
bin	0.26	0
bin	0.28	0
bin	0.3	0
bin	0.32	0
bin	0.34	0
bin	0.36	0
bin	0.38	0
bin	0.4	0
bin	0.42	0
bin	0.44	0
bin	0.46	0
bin	0.48	0
bin	0.5	0
scalar Wireless_12_5.hostB.wlan[0].mac.queue queueLength:max 1
attr interpolationmode sample-hold
attr source "count(packetPushed) - count(packetPopped) - count(packetRemoved) - count(packetDropped)"
attr title "queue length, max"
scalar Wireless_12_5.hostB.wlan[0].mac.queue queueLength:timeavg 0
attr interpolationmode sample-hold
attr source "count(packetPushed) - count(packetPopped) - count(packetRemoved) - count(packetDropped)"
attr title "queue length, timeavg"
scalar Wireless_12_5.hostB.wlan[0].mac.queue packetPushed:count 1
attr interpolationmode none
attr title "packet pushed, count"
scalar Wireless_12_5.hostB.wlan[0].mac.queue packetPushed:sum(packetBytes) 59
attr interpolationmode none
attr title "packet pushed, sum(packetBytes)"
scalar Wireless_12_5.hostB.wlan[0].mac.queue packetDropQueueOverflow:count 0
attr interpolationmode none
attr source packetDropReasonIsQueueOverflow(packetDropped)
attr title "packet drops: queue overflow, count"
scalar Wireless_12_5.hostB.wlan[0].mac.queue packetDropQueueOverflow:sum(packetBytes) 0
attr interpolationmode none
attr source packetDropReasonIsQueueOverflow(packetDropped)
attr title "packet drops: queue overflow, sum(packetBytes)"
scalar Wireless_12_5.hostB.wlan[0].mac.queue packetRemoved:count 0
attr interpolationmode none
attr title "packets removed, count"
scalar Wireless_12_5.hostB.wlan[0].mac.queue packetRemoved:sum(packetBytes) 0
attr interpolationmode none
attr title "packets removed, sum(packetBytes)"
scalar Wireless_12_5.hostB.wlan[0].mac numRetry 0
scalar Wireless_12_5.hostB.wlan[0].mac numSentWithoutRetry 1
scalar Wireless_12_5.hostB.wlan[0].mac numGivenUp 0
scalar Wireless_12_5.hostB.wlan[0].mac numCollision 2
scalar Wireless_12_5.hostB.wlan[0].mac numSent 1
scalar Wireless_12_5.hostB.wlan[0].mac numReceived 0
scalar Wireless_12_5.hostB.wlan[0].mac numSentBroadcast 0
scalar Wireless_12_5.hostB.wlan[0].mac numReceivedBroadcast 1
scalar Wireless_12_5.hostB.wlan[0].mac packetDropIncorrectlyReceived:count 2
attr interpolationmode none
attr source packetDropReasonIsIncorrectlyReceived(packetDropped)
attr title "packet drop: incorrectly received, count"
scalar Wireless_12_5.hostB.wlan[0].mac packetDropIncorrectlyReceived:sum(packetBytes) 118
attr interpolationmode none
attr source packetDropReasonIsIncorrectlyReceived(packetDropped)
attr title "packet drop: incorrectly received, sum(packetBytes)"
scalar Wireless_12_5.hostB.wlan[0].mac packetDropNotAddressedToUs:count 12
attr interpolationmode none
attr source packetDropReasonIsNotAddressedToUs(packetDropped)
attr title "packet drop: not addressed to us, count"
scalar Wireless_12_5.hostB.wlan[0].mac packetDropNotAddressedToUs:sum(packetBytes) 708
attr interpolationmode none
attr source packetDropReasonIsNotAddressedToUs(packetDropped)
attr title "packet drop: not addressed to us, sum(packetBytes)"
scalar Wireless_12_5.hostB.wlan[0].mac packetDropQueueOverflow:count 0
attr interpolationmode none
attr source packetDropReasonIsQueueOverflow(packetDropped)
attr title "packet drop: queue overflow, count"
scalar Wireless_12_5.hostB.wlan[0].mac packetDropQueueOverflow:sum(packetBytes) 0
attr interpolationmode none
attr source packetDropReasonIsQueueOverflow(packetDropped)
attr title "packet drop: queue overflow, sum(packetBytes)"
scalar Wireless_12_5.hostB.wlan[0].mac packetDropRetryLimitReached:count 0
attr interpolationmode none
attr source packetDropReasonIsRetryLimitReached(packetDropped)
attr title "packet drop: retry limit reached, count"
scalar Wireless_12_5.hostB.wlan[0].mac packetDropRetryLimitReached:sum(packetBytes) 0
attr interpolationmode none
attr source packetDropReasonIsRetryLimitReached(packetDropped)
attr title "packet drop: retry limit reached, sum(packetBytes)"
scalar Wireless_12_5.hostB.wlan[0].mac linkBroken:count 0
attr interpolationmode none
attr source linkBroken
attr title "link break, count"
scalar Wireless_12_5.hostB.wlan[0].radio radioMode:count 5
attr interpolationmode sample-hold
attr source radioModeChanged
attr title "Radio mode, count"
scalar Wireless_12_5.hostB.wlan[0].radio receptionState:count 59
attr interpolationmode sample-hold
attr source receptionStateChanged
attr title "Radio reception state, count"
scalar Wireless_12_5.hostB.wlan[0].radio transmissionState:count 4
attr interpolationmode sample-hold
attr source transmissionStateChanged
attr title "Radio transmission state, count"
statistic Wireless_12_5.hostB.wlan[0].radio minSnir:histogram
field count 27
field mean 7353.7173411387
field stddev 7124.6351925158
field min 0.9998745138798
field max 29737.007407376
field sum 198550.36821074
field sqrsum 2779854378.0881
attr source minimumSnir(packetSentToUpper)
attr title "Min SNIR, histogram"
bin	-inf	0
bin	0	3
bin	500	0
bin	1000	0
bin	1500	1
bin	2000	2
bin	2500	2
bin	3000	0
bin	3500	2
bin	4000	0
bin	4500	0
bin	5000	0
bin	5500	0
bin	6000	0
bin	6500	0
bin	7000	0
bin	7500	15
bin	8000	0
bin	8500	0
bin	9000	0
bin	9500	0
bin	10000	0
bin	10500	0
bin	11000	0
bin	11500	0
bin	12000	0
bin	12500	0
bin	13000	0
bin	13500	0
bin	14000	0
bin	14500	0
bin	15000	0
bin	15500	0
bin	16000	0
bin	16500	0
bin	17000	0
bin	17500	0
bin	18000	0
bin	18500	0
bin	19000	0
bin	19500	0
bin	20000	0
bin	20500	0
bin	21000	0
bin	21500	0
bin	22000	0
bin	22500	0
bin	23000	0
bin	23500	0
bin	24000	0
bin	24500	0
bin	25000	0
bin	25500	0
bin	26000	0
bin	26500	0
bin	27000	0
bin	27500	0
bin	28000	0
bin	28500	0
bin	29000	0
bin	29500	2
bin	30000	0
bin	30500	0
bin	31000	0
bin	31500	0
bin	32000	0
bin	32500	0
bin	33000	0
bin	33500	0
bin	34000	0
bin	34500	0
bin	35000	0
bin	35500	0
bin	36000	0
bin	36500	0
bin	37000	0
bin	37500	0
statistic Wireless_12_5.hostB.wlan[0].radio packetErrorRate:histogram
field count 27
field mean 0.06354601777215
field stddev 0.23231743843346
field min 0
field max 0.99999562076278
field sum 1.715742479848
field sqrsum 1.5122847993242
attr source packetErrorRate(packetSentToUpper)
attr title "Packet error rate, histogram"
bin	-inf	0
bin	0	25
bin	0.02	0
bin	0.04	0
bin	0.06	0
bin	0.08	0
bin	0.1	0
bin	0.12	0
bin	0.14	0
bin	0.16	0
bin	0.18	0
bin	0.2	0
bin	0.22	0
bin	0.24	0
bin	0.26	0
bin	0.28	0
bin	0.3	0
bin	0.32	0
bin	0.34	0
bin	0.36	0
bin	0.38	0
bin	0.4	0
bin	0.42	0
bin	0.44	0
bin	0.46	0
bin	0.48	0
bin	0.5	0
bin	0.52	0
bin	0.54	0
bin	0.56	0
bin	0.58	0
bin	0.6	0
bin	0.62	0
bin	0.64	0
bin	0.66	0
bin	0.68	0
bin	0.7	1
bin	0.72	0
bin	0.74	0
bin	0.76	0
bin	0.78	0
bin	0.8	0
bin	0.82	0
bin	0.84	0
bin	0.86	0
bin	0.88	0
bin	0.9	0
bin	0.92	0
bin	0.94	0
bin	0.96	0
bin	0.98	1
bin	1	0
bin	1.02	0
bin	1.04	0
bin	1.06	0
bin	1.08	0
bin	1.1	0
bin	1.12	0
bin	1.14	0
bin	1.16	0
bin	1.18	0
bin	1.2	0
bin	1.22	0
bin	1.24	0
bin	1.26	0
statistic Wireless_12_5.hostB.wlan[0].radio bitErrorRate:histogram
field count 27
field mean 0.00092966542134784
field stddev 0.0043854478592498
field min 0
field max 0.022756908127942
field sum 0.025100966376392
field sqrsum 0.00052337147656371
attr source bitErrorRate(packetSentToUpper)
attr title "Bit error rate, histogram"
bin	-inf	0
bin	0	25
bin	0.0005	0
bin	0.001	0
bin	0.0015	0
bin	0.002	1
bin	0.0025	0
bin	0.003	0
bin	0.0035	0
bin	0.004	0
bin	0.0045	0
bin	0.005	0
bin	0.0055	0
bin	0.006	0
bin	0.0065	0
bin	0.007	0
bin	0.0075	0
bin	0.008	0
bin	0.0085	0
bin	0.009	0
bin	0.0095	0
bin	0.01	0
bin	0.0105	0
bin	0.011	0
bin	0.0115	0
bin	0.012	0
bin	0.0125	0
bin	0.013	0
bin	0.0135	0
bin	0.014	0
bin	0.0145	0
bin	0.015	0
bin	0.0155	0
bin	0.016	0
bin	0.0165	0
bin	0.017	0
bin	0.0175	0
bin	0.018	0
bin	0.0185	0
bin	0.019	0
bin	0.0195	0
bin	0.02	0
bin	0.0205	0
bin	0.021	0
bin	0.0215	0
bin	0.022	0
bin	0.0225	1
bin	0.023	0
bin	0.0235	0
bin	0.024	0
bin	0.0245	0
bin	0.025	0
bin	0.0255	0
bin	0.026	0
bin	0.0265	0
bin	0.027	0
bin	0.0275	0
bin	0.028	0
bin	0.0285	0
statistic Wireless_12_5.hostB.wlan[0].radio symbolErrorRate:histogram
field count 27
field mean 0.00092966542134784
field stddev 0.0043854478592498
field min 0
field max 0.022756908127942
field sum 0.025100966376392
field sqrsum 0.00052337147656371
attr source symbolErrorRate(packetSentToUpper)
attr title "Symbol error rate, histogram"
bin	-inf	0
bin	0	25
bin	0.0005	0
bin	0.001	0
bin	0.0015	0
bin	0.002	1
bin	0.0025	0
bin	0.003	0
bin	0.0035	0
bin	0.004	0
bin	0.0045	0
bin	0.005	0
bin	0.0055	0
bin	0.006	0
bin	0.0065	0
bin	0.007	0
bin	0.0075	0
bin	0.008	0
bin	0.0085	0
bin	0.009	0
bin	0.0095	0
bin	0.01	0
bin	0.0105	0
bin	0.011	0
bin	0.0115	0
bin	0.012	0
bin	0.0125	0
bin	0.013	0
bin	0.0135	0
bin	0.014	0
bin	0.0145	0
bin	0.015	0
bin	0.0155	0
bin	0.016	0
bin	0.0165	0
bin	0.017	0
bin	0.0175	0
bin	0.018	0
bin	0.0185	0
bin	0.019	0
bin	0.0195	0
bin	0.02	0
bin	0.0205	0
bin	0.021	0
bin	0.0215	0
bin	0.022	0
bin	0.0225	1
bin	0.023	0
bin	0.0235	0
bin	0.024	0
bin	0.0245	0
bin	0.025	0
bin	0.0255	0
bin	0.026	0
bin	0.0265	0
bin	0.027	0
bin	0.0275	0
bin	0.028	0
bin	0.0285	0
scalar Wireless_12_5.hostB.ipv4.ip packetDropAddressResolutionFailed:count 0
attr interpolationmode none
attr source packetDropReasonIsAddressResolutionFailed(packetDropped)
attr title "packet drop: address resolution failed, count"
scalar Wireless_12_5.hostB.ipv4.ip packetDropAddressResolutionFailed:sum(packetBytes) 0
attr interpolationmode none
attr source packetDropReasonIsAddressResolutionFailed(packetDropped)
attr title "packet drop: address resolution failed, sum(packetBytes)"
scalar Wireless_12_5.hostB.ipv4.ip packetDropHopLimitReached:count 0
attr interpolationmode none
attr source packetDropReasonIsHopLimitReached(packetDropped)
attr title "packet drop: hop limit reached, count"
scalar Wireless_12_5.hostB.ipv4.ip packetDropHopLimitReached:sum(packetBytes) 0
attr interpolationmode none
attr source packetDropReasonIsHopLimitReached(packetDropped)
attr title "packet drop: hop limit reached, sum(packetBytes)"
scalar Wireless_12_5.hostB.ipv4.ip packetDropForwardingDisabled:count 0
attr interpolationmode none
attr source packetDropReasonIsForwardingDisabled(packetDropped)
attr title "packet drop: forwarding disabled, count"
scalar Wireless_12_5.hostB.ipv4.ip packetDropForwardingDisabled:sum(packetBytes) 0
attr interpolationmode none
attr source packetDropReasonIsForwardingDisabled(packetDropped)
attr title "packet drop: forwarding disabled, sum(packetBytes)"
scalar Wireless_12_5.hostB.ipv4.ip packetDropNoInterfaceFound:count 0
attr interpolationmode none
attr source packetDropReasonIsNoInterfaceFound(packetDropped)
attr title "packet drop: no interface found, count"
scalar Wireless_12_5.hostB.ipv4.ip packetDropNoInterfaceFound:sum(packetBytes) 0
attr interpolationmode none
attr source packetDropReasonIsNoInterfaceFound(packetDropped)
attr title "packet drop: no interface found, sum(packetBytes)"
scalar Wireless_12_5.hostB.ipv4.ip packetDropNoRouteFound:count 0
attr interpolationmode none
attr source packetDropReasonIsNoRouteFound(packetDropped)
attr title "packet drop: no route found, count"
scalar Wireless_12_5.hostB.ipv4.ip packetDropNoRouteFound:sum(packetBytes) 0
attr interpolationmode none
attr source packetDropReasonIsNoRouteFound(packetDropped)
attr title "packet drop: no route found, sum(packetBytes)"
scalar Wireless_12_5.hostB.ipv4.ip packetDropUndefined:count 0
attr interpolationmode none
attr source packetDropReasonIsUndefined(packetDropped)
attr title "packet drop: undefined, count"
scalar Wireless_12_5.hostB.ipv4.ip packetDropUndefined:sum(packetBytes) 0
attr interpolationmode none
attr source packetDropReasonIsUndefined(packetDropped)
attr title "packet drop: undefined, sum(packetBytes)"
scalar Wireless_12_5.hostB.udp packetReceived:count 1
attr interpolationmode none
attr source packetReceived
attr title "packets received, count"
scalar Wireless_12_5.hostB.udp packetReceived:sum(packetBytes) 12
attr interpolationmode none
attr source packetReceived
attr title "packets received, sum(packetBytes)"
scalar Wireless_12_5.hostB.udp packetSent:count 1
attr interpolationmode none
attr source packetSent
attr title "packets sent, count"
scalar Wireless_12_5.hostB.udp packetSent:sum(packetBytes) 12
attr interpolationmode none
attr source packetSent
attr title "packets sent, sum(packetBytes)"
scalar Wireless_12_5.hostB.udp passedUpPk:count 1
attr interpolationmode none
attr source packetSentToUpper
attr title "packets passed up, count"
scalar Wireless_12_5.hostB.udp droppedPkWrongPort:count 0
attr interpolationmode none
attr source packetDropReasonIsNoPortFound(packetDropped)
attr title "packets dropped (wrong port), count"
scalar Wireless_12_5.hostB.udp droppedPkBadChecksum:count 0
attr interpolationmode none
attr source packetDropReasonIsIncorrectlyReceived(packetDropped)
attr title "packets dropped (checksum error), count"
scalar Wireless_12_5.hostC.lo[0].lo rcvdPkFromHl:count 0
attr interpolationmode none
attr source packetReceivedFromUpper
attr title "packets received from higher layer, count"
scalar Wireless_12_5.hostC.lo[0].lo rcvdPkFromHl:sum(packetBytes) 0
attr interpolationmode none
attr source packetReceivedFromUpper
attr title "packets received from higher layer, sum(packetBytes)"
scalar Wireless_12_5.hostC.lo[0].lo passedUpPk:count 0
attr interpolationmode none
attr source packetSentToUpper
attr title "packets passed to higher layer, count"
scalar Wireless_12_5.hostC.lo[0].lo passedUpPk:sum(packetBytes) 0
attr interpolationmode none
attr source packetSentToUpper
attr title "packets passed to higher layer, sum(packetBytes)"
scalar Wireless_12_5.hostC.wlan[0].mac.queue packetPopped:count 1
attr interpolationmode none
attr title "packet popped, count"
scalar Wireless_12_5.hostC.wlan[0].mac.queue packetPopped:sum(packetBytes) 59
attr interpolationmode none
attr title "packet popped, sum(packetBytes)"
statistic Wireless_12_5.hostC.wlan[0].mac.queue queueingTime:histogram
field count 1
field mean 0
field stddev -nan
field min 0
field max 0
field sum 0
field sqrsum 0
attr interpolationmode none
attr source queueingTime(packetPopped)
attr title "queueing times, histogram"
attr unit s
bin	-inf	0
bin	-0.5	0
bin	-0.48	0
bin	-0.46	0
bin	-0.44	0
bin	-0.42	0
bin	-0.4	0
bin	-0.38	0
bin	-0.36	0
bin	-0.34	0
bin	-0.32	0
bin	-0.3	0
bin	-0.28	0
bin	-0.26	0
bin	-0.24	0
bin	-0.22	0
bin	-0.2	0
bin	-0.18	0
bin	-0.16	0
bin	-0.14	0
bin	-0.12	0
bin	-0.1	0
bin	-0.08	0
bin	-0.06	0
bin	-0.04	0
bin	-0.02	0
bin	0	1
bin	0.02	0
bin	0.04	0
bin	0.06	0
bin	0.08	0
bin	0.1	0
bin	0.12	0
bin	0.14	0
bin	0.16	0
bin	0.18	0
bin	0.2	0
bin	0.22	0
bin	0.24	0
bin	0.26	0
bin	0.28	0
bin	0.3	0
bin	0.32	0
bin	0.34	0
bin	0.36	0
bin	0.38	0
bin	0.4	0
bin	0.42	0
bin	0.44	0
bin	0.46	0
bin	0.48	0
bin	0.5	0
scalar Wireless_12_5.hostC.wlan[0].mac.queue queueLength:max 1
attr interpolationmode sample-hold
attr source "count(packetPushed) - count(packetPopped) - count(packetRemoved) - count(packetDropped)"
attr title "queue length, max"
scalar Wireless_12_5.hostC.wlan[0].mac.queue queueLength:timeavg 0
attr interpolationmode sample-hold
attr source "count(packetPushed) - count(packetPopped) - count(packetRemoved) - count(packetDropped)"
attr title "queue length, timeavg"
scalar Wireless_12_5.hostC.wlan[0].mac.queue packetPushed:count 1
attr interpolationmode none
attr title "packet pushed, count"
scalar Wireless_12_5.hostC.wlan[0].mac.queue packetPushed:sum(packetBytes) 59
attr interpolationmode none
attr title "packet pushed, sum(packetBytes)"
scalar Wireless_12_5.hostC.wlan[0].mac.queue packetDropQueueOverflow:count 0
attr interpolationmode none
attr source packetDropReasonIsQueueOverflow(packetDropped)
attr title "packet drops: queue overflow, count"
scalar Wireless_12_5.hostC.wlan[0].mac.queue packetDropQueueOverflow:sum(packetBytes) 0
attr interpolationmode none
attr source packetDropReasonIsQueueOverflow(packetDropped)
attr title "packet drops: queue overflow, sum(packetBytes)"
scalar Wireless_12_5.hostC.wlan[0].mac.queue packetRemoved:count 0
attr interpolationmode none
attr title "packets removed, count"
scalar Wireless_12_5.hostC.wlan[0].mac.queue packetRemoved:sum(packetBytes) 0
attr interpolationmode none
attr title "packets removed, sum(packetBytes)"
scalar Wireless_12_5.hostC.wlan[0].mac numRetry 1
scalar Wireless_12_5.hostC.wlan[0].mac numSentWithoutRetry 0
scalar Wireless_12_5.hostC.wlan[0].mac numGivenUp 0
scalar Wireless_12_5.hostC.wlan[0].mac numCollision 1
scalar Wireless_12_5.hostC.wlan[0].mac numSent 1
scalar Wireless_12_5.hostC.wlan[0].mac numReceived 0
scalar Wireless_12_5.hostC.wlan[0].mac numSentBroadcast 0
scalar Wireless_12_5.hostC.wlan[0].mac numReceivedBroadcast 1
scalar Wireless_12_5.hostC.wlan[0].mac packetDropIncorrectlyReceived:count 1
attr interpolationmode none
attr source packetDropReasonIsIncorrectlyReceived(packetDropped)
attr title "packet drop: incorrectly received, count"
scalar Wireless_12_5.hostC.wlan[0].mac packetDropIncorrectlyReceived:sum(packetBytes) 59
attr interpolationmode none
attr source packetDropReasonIsIncorrectlyReceived(packetDropped)
attr title "packet drop: incorrectly received, sum(packetBytes)"
scalar Wireless_12_5.hostC.wlan[0].mac packetDropNotAddressedToUs:count 12
attr interpolationmode none
attr source packetDropReasonIsNotAddressedToUs(packetDropped)
attr title "packet drop: not addressed to us, count"
scalar Wireless_12_5.hostC.wlan[0].mac packetDropNotAddressedToUs:sum(packetBytes) 708
attr interpolationmode none
attr source packetDropReasonIsNotAddressedToUs(packetDropped)
attr title "packet drop: not addressed to us, sum(packetBytes)"
scalar Wireless_12_5.hostC.wlan[0].mac packetDropQueueOverflow:count 0
attr interpolationmode none
attr source packetDropReasonIsQueueOverflow(packetDropped)
attr title "packet drop: queue overflow, count"
scalar Wireless_12_5.hostC.wlan[0].mac packetDropQueueOverflow:sum(packetBytes) 0
attr interpolationmode none
attr source packetDropReasonIsQueueOverflow(packetDropped)
attr title "packet drop: queue overflow, sum(packetBytes)"
scalar Wireless_12_5.hostC.wlan[0].mac packetDropRetryLimitReached:count 0
attr interpolationmode none
attr source packetDropReasonIsRetryLimitReached(packetDropped)
attr title "packet drop: retry limit reached, count"
scalar Wireless_12_5.hostC.wlan[0].mac packetDropRetryLimitReached:sum(packetBytes) 0
attr interpolationmode none
attr source packetDropReasonIsRetryLimitReached(packetDropped)
attr title "packet drop: retry limit reached, sum(packetBytes)"
scalar Wireless_12_5.hostC.wlan[0].mac linkBroken:count 0
attr interpolationmode none
attr source linkBroken
attr title "link break, count"
scalar Wireless_12_5.hostC.wlan[0].radio radioMode:count 7
attr interpolationmode sample-hold
attr source radioModeChanged
attr title "Radio mode, count"
scalar Wireless_12_5.hostC.wlan[0].radio receptionState:count 59
attr interpolationmode sample-hold
attr source receptionStateChanged
attr title "Radio reception state, count"
scalar Wireless_12_5.hostC.wlan[0].radio transmissionState:count 8
attr interpolationmode sample-hold
attr source transmissionStateChanged
attr title "Radio transmission state, count"
statistic Wireless_12_5.hostC.wlan[0].radio minSnir:histogram
field count 26
field mean 7636.6116022733
field stddev 7109.4042373266
field min 0.80354503802682
field max 29737.007407376
field sum 198551.90165911
field sqrsum 2779854471.1063
attr source minimumSnir(packetSentToUpper)
attr title "Min SNIR, histogram"
bin	-inf	0
bin	0	2
bin	500	0
bin	1000	0
bin	1500	1
bin	2000	2
bin	2500	2
bin	3000	0
bin	3500	2
bin	4000	0
bin	4500	0
bin	5000	0
bin	5500	0
bin	6000	0
bin	6500	0
bin	7000	0
bin	7500	15
bin	8000	0
bin	8500	0
bin	9000	0
bin	9500	0
bin	10000	0
bin	10500	0
bin	11000	0
bin	11500	0
bin	12000	0
bin	12500	0
bin	13000	0
bin	13500	0
bin	14000	0
bin	14500	0
bin	15000	0
bin	15500	0
bin	16000	0
bin	16500	0
bin	17000	0
bin	17500	0
bin	18000	0
bin	18500	0
bin	19000	0
bin	19500	0
bin	20000	0
bin	20500	0
bin	21000	0
bin	21500	0
bin	22000	0
bin	22500	0
bin	23000	0
bin	23500	0
bin	24000	0
bin	24500	0
bin	25000	0
bin	25500	0
bin	26000	0
bin	26500	0
bin	27000	0
bin	27500	0
bin	28000	0
bin	28500	0
bin	29000	0
bin	29500	2
bin	30000	0
bin	30500	0
bin	31000	0
bin	31500	0
bin	32000	0
bin	32500	0
bin	33000	0
bin	33500	0
bin	34000	0
bin	34500	0
bin	35000	0
bin	35500	0
bin	36000	0
bin	36500	0
bin	37000	0
bin	37500	0
statistic Wireless_12_5.hostC.wlan[0].radio packetErrorRate:histogram
field count 26
field mean 0.038461538376693
field stddev 0.19611613470495
field min 0
field max 0.99999999779104
field sum 0.99999999779401
field sqrsum 0.99999999558207
attr source packetErrorRate(packetSentToUpper)
attr title "Packet error rate, histogram"
bin	-inf	0
bin	0	25
bin	0.02	0
bin	0.04	0
bin	0.06	0
bin	0.08	0
bin	0.1	0
bin	0.12	0
bin	0.14	0
bin	0.16	0
bin	0.18	0
bin	0.2	0
bin	0.22	0
bin	0.24	0
bin	0.26	0
bin	0.28	0
bin	0.3	0
bin	0.32	0
bin	0.34	0
bin	0.36	0
bin	0.38	0
bin	0.4	0
bin	0.42	0
bin	0.44	0
bin	0.46	0
bin	0.48	0
bin	0.5	0
bin	0.52	0
bin	0.54	0
bin	0.56	0
bin	0.58	0
bin	0.6	0
bin	0.62	0
bin	0.64	0
bin	0.66	0
bin	0.68	0
bin	0.7	0
bin	0.72	0
bin	0.74	0
bin	0.76	0
bin	0.78	0
bin	0.8	0
bin	0.82	0
bin	0.84	0
bin	0.86	0
bin	0.88	0
bin	0.9	0
bin	0.92	0
bin	0.94	0
bin	0.96	0
bin	0.98	1
bin	1	0
bin	1.02	0
bin	1.04	0
bin	1.06	0
bin	1.08	0
bin	1.1	0
bin	1.12	0
bin	1.14	0
bin	1.16	0
bin	1.18	0
bin	1.2	0
bin	1.22	0
bin	1.24	0
bin	1.26	0
statistic Wireless_12_5.hostC.wlan[0].radio bitErrorRate:histogram
field count 26
field mean 0.0014038991214112
field stddev 0.0071585090151903
field min 0
field max 0.036501377156686
field sum 0.036501377156691
field sqrsum 0.0013323505343346
attr source bitErrorRate(packetSentToUpper)
attr title "Bit error rate, histogram"
bin	-inf	0
bin	0	25
bin	0.001	0
bin	0.002	0
bin	0.003	0
bin	0.004	0
bin	0.005	0
bin	0.006	0
bin	0.007	0
bin	0.008	0
bin	0.009	0
bin	0.01	0
bin	0.011	0
bin	0.012	0
bin	0.013	0
bin	0.014	0
bin	0.015	0
bin	0.016	0
bin	0.017	0
bin	0.018	0
bin	0.019	0
bin	0.02	0
bin	0.021	0
bin	0.022	0
bin	0.023	0
bin	0.024	0
bin	0.025	0
bin	0.026	0
bin	0.027	0
bin	0.028	0
bin	0.029	0
bin	0.03	0
bin	0.031	0
bin	0.032	0
bin	0.033	0
bin	0.034	0
bin	0.035	0
bin	0.036	1
bin	0.037	0
bin	0.038	0
bin	0.039	0
bin	0.04	0
bin	0.041	0
bin	0.042	0
bin	0.043	0
bin	0.044	0
bin	0.045	0
bin	0.046	0
statistic Wireless_12_5.hostC.wlan[0].radio symbolErrorRate:histogram
field count 26
field mean 0.0014038991214112
field stddev 0.0071585090151903
field min 0
field max 0.036501377156686
field sum 0.036501377156691
field sqrsum 0.0013323505343346
attr source symbolErrorRate(packetSentToUpper)
attr title "Symbol error rate, histogram"
bin	-inf	0
bin	0	25
bin	0.001	0
bin	0.002	0
bin	0.003	0
bin	0.004	0
bin	0.005	0
bin	0.006	0
bin	0.007	0
bin	0.008	0
bin	0.009	0
bin	0.01	0
bin	0.011	0
bin	0.012	0
bin	0.013	0
bin	0.014	0
bin	0.015	0
bin	0.016	0
bin	0.017	0
bin	0.018	0
bin	0.019	0
bin	0.02	0
bin	0.021	0
bin	0.022	0
bin	0.023	0
bin	0.024	0
bin	0.025	0
bin	0.026	0
bin	0.027	0
bin	0.028	0
bin	0.029	0
bin	0.03	0
bin	0.031	0
bin	0.032	0
bin	0.033	0
bin	0.034	0
bin	0.035	0
bin	0.036	1
bin	0.037	0
bin	0.038	0
bin	0.039	0
bin	0.04	0
bin	0.041	0
bin	0.042	0
bin	0.043	0
bin	0.044	0
bin	0.045	0
bin	0.046	0
scalar Wireless_12_5.hostC.ipv4.ip packetDropAddressResolutionFailed:count 0
attr interpolationmode none
attr source packetDropReasonIsAddressResolutionFailed(packetDropped)
attr title "packet drop: address resolution failed, count"
scalar Wireless_12_5.hostC.ipv4.ip packetDropAddressResolutionFailed:sum(packetBytes) 0
attr interpolationmode none
attr source packetDropReasonIsAddressResolutionFailed(packetDropped)
attr title "packet drop: address resolution failed, sum(packetBytes)"
scalar Wireless_12_5.hostC.ipv4.ip packetDropHopLimitReached:count 0
attr interpolationmode none
attr source packetDropReasonIsHopLimitReached(packetDropped)
attr title "packet drop: hop limit reached, count"
scalar Wireless_12_5.hostC.ipv4.ip packetDropHopLimitReached:sum(packetBytes) 0
attr interpolationmode none
attr source packetDropReasonIsHopLimitReached(packetDropped)
attr title "packet drop: hop limit reached, sum(packetBytes)"
scalar Wireless_12_5.hostC.ipv4.ip packetDropForwardingDisabled:count 0
attr interpolationmode none
attr source packetDropReasonIsForwardingDisabled(packetDropped)
attr title "packet drop: forwarding disabled, count"
scalar Wireless_12_5.hostC.ipv4.ip packetDropForwardingDisabled:sum(packetBytes) 0
attr interpolationmode none
attr source packetDropReasonIsForwardingDisabled(packetDropped)
attr title "packet drop: forwarding disabled, sum(packetBytes)"
scalar Wireless_12_5.hostC.ipv4.ip packetDropNoInterfaceFound:count 0
attr interpolationmode none
attr source packetDropReasonIsNoInterfaceFound(packetDropped)
attr title "packet drop: no interface found, count"
scalar Wireless_12_5.hostC.ipv4.ip packetDropNoInterfaceFound:sum(packetBytes) 0
attr interpolationmode none
attr source packetDropReasonIsNoInterfaceFound(packetDropped)
attr title "packet drop: no interface found, sum(packetBytes)"
scalar Wireless_12_5.hostC.ipv4.ip packetDropNoRouteFound:count 0
attr interpolationmode none
attr source packetDropReasonIsNoRouteFound(packetDropped)
attr title "packet drop: no route found, count"
scalar Wireless_12_5.hostC.ipv4.ip packetDropNoRouteFound:sum(packetBytes) 0
attr interpolationmode none
attr source packetDropReasonIsNoRouteFound(packetDropped)
attr title "packet drop: no route found, sum(packetBytes)"
scalar Wireless_12_5.hostC.ipv4.ip packetDropUndefined:count 0
attr interpolationmode none
attr source packetDropReasonIsUndefined(packetDropped)
attr title "packet drop: undefined, count"
scalar Wireless_12_5.hostC.ipv4.ip packetDropUndefined:sum(packetBytes) 0
attr interpolationmode none
attr source packetDropReasonIsUndefined(packetDropped)
attr title "packet drop: undefined, sum(packetBytes)"
scalar Wireless_12_5.hostC.udp packetReceived:count 1
attr interpolationmode none
attr source packetReceived
attr title "packets received, count"
scalar Wireless_12_5.hostC.udp packetReceived:sum(packetBytes) 12
attr interpolationmode none
attr source packetReceived
attr title "packets received, sum(packetBytes)"
scalar Wireless_12_5.hostC.udp packetSent:count 1
attr interpolationmode none
attr source packetSent
attr title "packets sent, count"
scalar Wireless_12_5.hostC.udp packetSent:sum(packetBytes) 12
attr interpolationmode none
attr source packetSent
attr title "packets sent, sum(packetBytes)"
scalar Wireless_12_5.hostC.udp passedUpPk:count 1
attr interpolationmode none
attr source packetSentToUpper
attr title "packets passed up, count"
scalar Wireless_12_5.hostC.udp droppedPkWrongPort:count 0
attr interpolationmode none
attr source packetDropReasonIsNoPortFound(packetDropped)
attr title "packets dropped (wrong port), count"
scalar Wireless_12_5.hostC.udp droppedPkBadChecksum:count 0
attr interpolationmode none
attr source packetDropReasonIsIncorrectlyReceived(packetDropped)
attr title "packets dropped (checksum error), count"
scalar Wireless_12_5.hostD.lo[0].lo rcvdPkFromHl:count 0
attr interpolationmode none
attr source packetReceivedFromUpper
attr title "packets received from higher layer, count"
scalar Wireless_12_5.hostD.lo[0].lo rcvdPkFromHl:sum(packetBytes) 0
attr interpolationmode none
attr source packetReceivedFromUpper
attr title "packets received from higher layer, sum(packetBytes)"
scalar Wireless_12_5.hostD.lo[0].lo passedUpPk:count 0
attr interpolationmode none
attr source packetSentToUpper
attr title "packets passed to higher layer, count"
scalar Wireless_12_5.hostD.lo[0].lo passedUpPk:sum(packetBytes) 0
attr interpolationmode none
attr source packetSentToUpper
attr title "packets passed to higher layer, sum(packetBytes)"
scalar Wireless_12_5.hostD.wlan[0].mac.queue packetPopped:count 1
attr interpolationmode none
attr title "packet popped, count"
scalar Wireless_12_5.hostD.wlan[0].mac.queue packetPopped:sum(packetBytes) 59
attr interpolationmode none
attr title "packet popped, sum(packetBytes)"
statistic Wireless_12_5.hostD.wlan[0].mac.queue queueingTime:histogram
field count 1
field mean 0
field stddev -nan
field min 0
field max 0
field sum 0
field sqrsum 0
attr interpolationmode none
attr source queueingTime(packetPopped)
attr title "queueing times, histogram"
attr unit s
bin	-inf	0
bin	-0.5	0
bin	-0.48	0
bin	-0.46	0
bin	-0.44	0
bin	-0.42	0
bin	-0.4	0
bin	-0.38	0
bin	-0.36	0
bin	-0.34	0
bin	-0.32	0
bin	-0.3	0
bin	-0.28	0
bin	-0.26	0
bin	-0.24	0
bin	-0.22	0
bin	-0.2	0
bin	-0.18	0
bin	-0.16	0
bin	-0.14	0
bin	-0.12	0
bin	-0.1	0
bin	-0.08	0
bin	-0.06	0
bin	-0.04	0
bin	-0.02	0
bin	0	1
bin	0.02	0
bin	0.04	0
bin	0.06	0
bin	0.08	0
bin	0.1	0
bin	0.12	0
bin	0.14	0
bin	0.16	0
bin	0.18	0
bin	0.2	0
bin	0.22	0
bin	0.24	0
bin	0.26	0
bin	0.28	0
bin	0.3	0
bin	0.32	0
bin	0.34	0
bin	0.36	0
bin	0.38	0
bin	0.4	0
bin	0.42	0
bin	0.44	0
bin	0.46	0
bin	0.48	0
bin	0.5	0
scalar Wireless_12_5.hostD.wlan[0].mac.queue queueLength:max 1
attr interpolationmode sample-hold
attr source "count(packetPushed) - count(packetPopped) - count(packetRemoved) - count(packetDropped)"
attr title "queue length, max"
scalar Wireless_12_5.hostD.wlan[0].mac.queue queueLength:timeavg 0
attr interpolationmode sample-hold
attr source "count(packetPushed) - count(packetPopped) - count(packetRemoved) - count(packetDropped)"
attr title "queue length, timeavg"
scalar Wireless_12_5.hostD.wlan[0].mac.queue packetPushed:count 1
attr interpolationmode none
attr title "packet pushed, count"
scalar Wireless_12_5.hostD.wlan[0].mac.queue packetPushed:sum(packetBytes) 59
attr interpolationmode none
attr title "packet pushed, sum(packetBytes)"
scalar Wireless_12_5.hostD.wlan[0].mac.queue packetDropQueueOverflow:count 0
attr interpolationmode none
attr source packetDropReasonIsQueueOverflow(packetDropped)
attr title "packet drops: queue overflow, count"
scalar Wireless_12_5.hostD.wlan[0].mac.queue packetDropQueueOverflow:sum(packetBytes) 0
attr interpolationmode none
attr source packetDropReasonIsQueueOverflow(packetDropped)
attr title "packet drops: queue overflow, sum(packetBytes)"
scalar Wireless_12_5.hostD.wlan[0].mac.queue packetRemoved:count 0
attr interpolationmode none
attr title "packets removed, count"
scalar Wireless_12_5.hostD.wlan[0].mac.queue packetRemoved:sum(packetBytes) 0
attr interpolationmode none
attr title "packets removed, sum(packetBytes)"
scalar Wireless_12_5.hostD.wlan[0].mac numRetry 0
scalar Wireless_12_5.hostD.wlan[0].mac numSentWithoutRetry 1
scalar Wireless_12_5.hostD.wlan[0].mac numGivenUp 0
scalar Wireless_12_5.hostD.wlan[0].mac numCollision 1
scalar Wireless_12_5.hostD.wlan[0].mac numSent 1
scalar Wireless_12_5.hostD.wlan[0].mac numReceived 0
scalar Wireless_12_5.hostD.wlan[0].mac numSentBroadcast 0
scalar Wireless_12_5.hostD.wlan[0].mac numReceivedBroadcast 1
scalar Wireless_12_5.hostD.wlan[0].mac packetDropIncorrectlyReceived:count 1
attr interpolationmode none
attr source packetDropReasonIsIncorrectlyReceived(packetDropped)
attr title "packet drop: incorrectly received, count"
scalar Wireless_12_5.hostD.wlan[0].mac packetDropIncorrectlyReceived:sum(packetBytes) 59
attr interpolationmode none
attr source packetDropReasonIsIncorrectlyReceived(packetDropped)
attr title "packet drop: incorrectly received, sum(packetBytes)"
scalar Wireless_12_5.hostD.wlan[0].mac packetDropNotAddressedToUs:count 13
attr interpolationmode none
attr source packetDropReasonIsNotAddressedToUs(packetDropped)
attr title "packet drop: not addressed to us, count"
scalar Wireless_12_5.hostD.wlan[0].mac packetDropNotAddressedToUs:sum(packetBytes) 767
attr interpolationmode none
attr source packetDropReasonIsNotAddressedToUs(packetDropped)
attr title "packet drop: not addressed to us, sum(packetBytes)"
scalar Wireless_12_5.hostD.wlan[0].mac packetDropQueueOverflow:count 0
attr interpolationmode none
attr source packetDropReasonIsQueueOverflow(packetDropped)
attr title "packet drop: queue overflow, count"
scalar Wireless_12_5.hostD.wlan[0].mac packetDropQueueOverflow:sum(packetBytes) 0
attr interpolationmode none
attr source packetDropReasonIsQueueOverflow(packetDropped)
attr title "packet drop: queue overflow, sum(packetBytes)"
scalar Wireless_12_5.hostD.wlan[0].mac packetDropRetryLimitReached:count 0
attr interpolationmode none
attr source packetDropReasonIsRetryLimitReached(packetDropped)
attr title "packet drop: retry limit reached, count"
scalar Wireless_12_5.hostD.wlan[0].mac packetDropRetryLimitReached:sum(packetBytes) 0
attr interpolationmode none
attr source packetDropReasonIsRetryLimitReached(packetDropped)
attr title "packet drop: retry limit reached, sum(packetBytes)"
scalar Wireless_12_5.hostD.wlan[0].mac linkBroken:count 0
attr interpolationmode none
attr source linkBroken
attr title "link break, count"
scalar Wireless_12_5.hostD.wlan[0].radio radioMode:count 5
attr interpolationmode sample-hold
attr source radioModeChanged
attr title "Radio mode, count"
scalar Wireless_12_5.hostD.wlan[0].radio receptionState:count 60
attr interpolationmode sample-hold
attr source receptionStateChanged
attr title "Radio reception state, count"
scalar Wireless_12_5.hostD.wlan[0].radio transmissionState:count 4
attr interpolationmode sample-hold
attr source transmissionStateChanged
attr title "Radio transmission state, count"
statistic Wireless_12_5.hostD.wlan[0].radio minSnir:histogram
field count 27
field mean 7353.5335236707
field stddev 7124.8319481946
field min 1.4994354540367
field max 29737.007407376
field sum 198545.40513911
field sqrsum 2779854280.2016
attr source minimumSnir(packetSentToUpper)
attr title "Min SNIR, histogram"
bin	-inf	0
bin	0	3
bin	500	0
bin	1000	0
bin	1500	1
bin	2000	2
bin	2500	2
bin	3000	0
bin	3500	2
bin	4000	0
bin	4500	0
bin	5000	0
bin	5500	0
bin	6000	0
bin	6500	0
bin	7000	0
bin	7500	15
bin	8000	0
bin	8500	0
bin	9000	0
bin	9500	0
bin	10000	0
bin	10500	0
bin	11000	0
bin	11500	0
bin	12000	0
bin	12500	0
bin	13000	0
bin	13500	0
bin	14000	0
bin	14500	0
bin	15000	0
bin	15500	0
bin	16000	0
bin	16500	0
bin	17000	0
bin	17500	0
bin	18000	0
bin	18500	0
bin	19000	0
bin	19500	0
bin	20000	0
bin	20500	0
bin	21000	0
bin	21500	0
bin	22000	0
bin	22500	0
bin	23000	0
bin	23500	0
bin	24000	0
bin	24500	0
bin	25000	0
bin	25500	0
bin	26000	0
bin	26500	0
bin	27000	0
bin	27500	0
bin	28000	0
bin	28500	0
bin	29000	0
bin	29500	2
bin	30000	0
bin	30500	0
bin	31000	0
bin	31500	0
bin	32000	0
bin	32500	0
bin	33000	0
bin	33500	0
bin	34000	0
bin	34500	0
bin	35000	0
bin	35500	0
bin	36000	0
bin	36500	0
bin	37000	0
bin	37500	0
statistic Wireless_12_5.hostD.wlan[0].radio packetErrorRate:histogram
field count 27
field mean 0.03797321950721
field stddev 0.18813193077768
field min 0
field max 0.97877762480988
field sum 1.0252769266947
field sqrsum 0.95916727362466
attr source packetErrorRate(packetSentToUpper)
attr title "Packet error rate, histogram"
bin	-inf	0
bin	0	25
bin	0.02	1
bin	0.04	0
bin	0.06	0
bin	0.08	0
bin	0.1	0
bin	0.12	0
bin	0.14	0
bin	0.16	0
bin	0.18	0
bin	0.2	0
bin	0.22	0
bin	0.24	0
bin	0.26	0
bin	0.28	0
bin	0.3	0
bin	0.32	0
bin	0.34	0
bin	0.36	0
bin	0.38	0
bin	0.4	0
bin	0.42	0
bin	0.44	0
bin	0.46	0
bin	0.48	0
bin	0.5	0
bin	0.52	0
bin	0.54	0
bin	0.56	0
bin	0.58	0
bin	0.6	0
bin	0.62	0
bin	0.64	0
bin	0.66	0
bin	0.68	0
bin	0.7	0
bin	0.72	0
bin	0.74	0
bin	0.76	0
bin	0.78	0
bin	0.8	0
bin	0.82	0
bin	0.84	0
bin	0.86	0
bin	0.88	0
bin	0.9	0
bin	0.92	0
bin	0.94	0
bin	0.96	1
bin	0.98	0
bin	1	0
bin	1.02	0
bin	1.04	0
bin	1.06	0
bin	1.08	0
bin	1.1	0
bin	1.12	0
bin	1.14	0
bin	1.16	0
bin	1.18	0
bin	1.2	0
bin	1.22	0
bin	1.24	0
statistic Wireless_12_5.hostD.wlan[0].radio bitErrorRate:histogram
field count 27
field mean 0.0002685168225983
field stddev 0.0013777504646031
field min 0
field max 0.0071621007132834
field sum 0.007249954210154
field sqrsum 5.1299839579057e-05
attr source bitErrorRate(packetSentToUpper)
attr title "Bit error rate, histogram"
bin	-inf	0
bin	0	26
bin	0.0001	0
bin	0.0002	0
bin	0.0003	0
bin	0.0004	0
bin	0.0005	0
bin	0.0006	0
bin	0.0007	0
bin	0.0008	0
bin	0.0009	0
bin	0.001	0
bin	0.0011	0
bin	0.0012	0
bin	0.0013	0
bin	0.0014	0
bin	0.0015	0
bin	0.0016	0
bin	0.0017	0
bin	0.0018	0
bin	0.0019	0
bin	0.002	0
bin	0.0021	0
bin	0.0022	0
bin	0.0023	0
bin	0.0024	0
bin	0.0025	0
bin	0.0026	0
bin	0.0027	0
bin	0.0028	0
bin	0.0029	0
bin	0.003	0
bin	0.0031	0
bin	0.0032	0
bin	0.0033	0
bin	0.0034	0
bin	0.0035	0
bin	0.0036	0
bin	0.0037	0
bin	0.0038	0
bin	0.0039	0
bin	0.004	0
bin	0.0041	0
bin	0.0042	0
bin	0.0043	0
bin	0.0044	0
bin	0.0045	0
bin	0.0046	0
bin	0.0047	0
bin	0.0048	0
bin	0.0049	0
bin	0.005	0
bin	0.0051	0
bin	0.0052	0
bin	0.0053	0
bin	0.0054	0
bin	0.0055	0
bin	0.0056	0
bin	0.0057	0
bin	0.0058	0
bin	0.0059	0
bin	0.006	0
bin	0.0061	0
bin	0.0062	0
bin	0.0063	0
bin	0.0064	0
bin	0.0065	0
bin	0.0066	0
bin	0.0067	0
bin	0.0068	0
bin	0.0069	0
bin	0.007	0
bin	0.0071	1
bin	0.0072	0
bin	0.0073	0
bin	0.0074	0
bin	0.0075	0
bin	0.0076	0
bin	0.0077	0
bin	0.0078	0
bin	0.0079	0
bin	0.008	0
bin	0.0081	0
bin	0.0082	0
bin	0.0083	0
bin	0.0084	0
bin	0.0085	0
bin	0.0086	0
bin	0.0087	0
bin	0.0088	0
bin	0.0089	0
bin	0.009	0
statistic Wireless_12_5.hostD.wlan[0].radio symbolErrorRate:histogram
field count 27
field mean 0.0002685168225983
field stddev 0.0013777504646031
field min 0
field max 0.0071621007132834
field sum 0.007249954210154
field sqrsum 5.1299839579057e-05
attr source symbolErrorRate(packetSentToUpper)
attr title "Symbol error rate, histogram"
bin	-inf	0
bin	0	26
bin	0.0001	0
bin	0.0002	0
bin	0.0003	0
bin	0.0004	0
bin	0.0005	0
bin	0.0006	0
bin	0.0007	0
bin	0.0008	0
bin	0.0009	0
bin	0.001	0
bin	0.0011	0
bin	0.0012	0
bin	0.0013	0
bin	0.0014	0
bin	0.0015	0
bin	0.0016	0
bin	0.0017	0
bin	0.0018	0
bin	0.0019	0
bin	0.002	0
bin	0.0021	0
bin	0.0022	0
bin	0.0023	0
bin	0.0024	0
bin	0.0025	0
bin	0.0026	0
bin	0.0027	0
bin	0.0028	0
bin	0.0029	0
bin	0.003	0
bin	0.0031	0
bin	0.0032	0
bin	0.0033	0
bin	0.0034	0
bin	0.0035	0
bin	0.0036	0
bin	0.0037	0
bin	0.0038	0
bin	0.0039	0
bin	0.004	0
bin	0.0041	0
bin	0.0042	0
bin	0.0043	0
bin	0.0044	0
bin	0.0045	0
bin	0.0046	0
bin	0.0047	0
bin	0.0048	0
bin	0.0049	0
bin	0.005	0
bin	0.0051	0
bin	0.0052	0
bin	0.0053	0
bin	0.0054	0
bin	0.0055	0
bin	0.0056	0
bin	0.0057	0
bin	0.0058	0
bin	0.0059	0
bin	0.006	0
bin	0.0061	0
bin	0.0062	0
bin	0.0063	0
bin	0.0064	0
bin	0.0065	0
bin	0.0066	0
bin	0.0067	0
bin	0.0068	0
bin	0.0069	0
bin	0.007	0
bin	0.0071	1
bin	0.0072	0
bin	0.0073	0
bin	0.0074	0
bin	0.0075	0
bin	0.0076	0
bin	0.0077	0
bin	0.0078	0
bin	0.0079	0
bin	0.008	0
bin	0.0081	0
bin	0.0082	0
bin	0.0083	0
bin	0.0084	0
bin	0.0085	0
bin	0.0086	0
bin	0.0087	0
bin	0.0088	0
bin	0.0089	0
bin	0.009	0
scalar Wireless_12_5.hostD.ipv4.ip packetDropAddressResolutionFailed:count 0
attr interpolationmode none
attr source packetDropReasonIsAddressResolutionFailed(packetDropped)
attr title "packet drop: address resolution failed, count"
scalar Wireless_12_5.hostD.ipv4.ip packetDropAddressResolutionFailed:sum(packetBytes) 0
attr interpolationmode none
attr source packetDropReasonIsAddressResolutionFailed(packetDropped)
attr title "packet drop: address resolution failed, sum(packetBytes)"
scalar Wireless_12_5.hostD.ipv4.ip packetDropHopLimitReached:count 0
attr interpolationmode none
attr source packetDropReasonIsHopLimitReached(packetDropped)
attr title "packet drop: hop limit reached, count"
scalar Wireless_12_5.hostD.ipv4.ip packetDropHopLimitReached:sum(packetBytes) 0
attr interpolationmode none
attr source packetDropReasonIsHopLimitReached(packetDropped)
attr title "packet drop: hop limit reached, sum(packetBytes)"
scalar Wireless_12_5.hostD.ipv4.ip packetDropForwardingDisabled:count 0
attr interpolationmode none
attr source packetDropReasonIsForwardingDisabled(packetDropped)
attr title "packet drop: forwarding disabled, count"
scalar Wireless_12_5.hostD.ipv4.ip packetDropForwardingDisabled:sum(packetBytes) 0
attr interpolationmode none
attr source packetDropReasonIsForwardingDisabled(packetDropped)
attr title "packet drop: forwarding disabled, sum(packetBytes)"
scalar Wireless_12_5.hostD.ipv4.ip packetDropNoInterfaceFound:count 0
attr interpolationmode none
attr source packetDropReasonIsNoInterfaceFound(packetDropped)
attr title "packet drop: no interface found, count"
scalar Wireless_12_5.hostD.ipv4.ip packetDropNoInterfaceFound:sum(packetBytes) 0
attr interpolationmode none
attr source packetDropReasonIsNoInterfaceFound(packetDropped)
attr title "packet drop: no interface found, sum(packetBytes)"
scalar Wireless_12_5.hostD.ipv4.ip packetDropNoRouteFound:count 0
attr interpolationmode none
attr source packetDropReasonIsNoRouteFound(packetDropped)
attr title "packet drop: no route found, count"
scalar Wireless_12_5.hostD.ipv4.ip packetDropNoRouteFound:sum(packetBytes) 0
attr interpolationmode none
attr source packetDropReasonIsNoRouteFound(packetDropped)
attr title "packet drop: no route found, sum(packetBytes)"
scalar Wireless_12_5.hostD.ipv4.ip packetDropUndefined:count 0
attr interpolationmode none
attr source packetDropReasonIsUndefined(packetDropped)
attr title "packet drop: undefined, count"
scalar Wireless_12_5.hostD.ipv4.ip packetDropUndefined:sum(packetBytes) 0
attr interpolationmode none
attr source packetDropReasonIsUndefined(packetDropped)
attr title "packet drop: undefined, sum(packetBytes)"
scalar Wireless_12_5.hostD.udp packetReceived:count 1
attr interpolationmode none
attr source packetReceived
attr title "packets received, count"
scalar Wireless_12_5.hostD.udp packetReceived:sum(packetBytes) 12
attr interpolationmode none
attr source packetReceived
attr title "packets received, sum(packetBytes)"
scalar Wireless_12_5.hostD.udp packetSent:count 1
attr interpolationmode none
attr source packetSent
attr title "packets sent, count"
scalar Wireless_12_5.hostD.udp packetSent:sum(packetBytes) 12
attr interpolationmode none
attr source packetSent
attr title "packets sent, sum(packetBytes)"
scalar Wireless_12_5.hostD.udp passedUpPk:count 1
attr interpolationmode none
attr source packetSentToUpper
attr title "packets passed up, count"
scalar Wireless_12_5.hostD.udp droppedPkWrongPort:count 0
attr interpolationmode none
attr source packetDropReasonIsNoPortFound(packetDropped)
attr title "packets dropped (wrong port), count"
scalar Wireless_12_5.hostD.udp droppedPkBadChecksum:count 0
attr interpolationmode none
attr source packetDropReasonIsIncorrectlyReceived(packetDropped)
attr title "packets dropped (checksum error), count"
scalar Wireless_12_5.hostE.lo[0].lo rcvdPkFromHl:count 0
attr interpolationmode none
attr source packetReceivedFromUpper
attr title "packets received from higher layer, count"
scalar Wireless_12_5.hostE.lo[0].lo rcvdPkFromHl:sum(packetBytes) 0
attr interpolationmode none
attr source packetReceivedFromUpper
attr title "packets received from higher layer, sum(packetBytes)"
scalar Wireless_12_5.hostE.lo[0].lo passedUpPk:count 0
attr interpolationmode none
attr source packetSentToUpper
attr title "packets passed to higher layer, count"
scalar Wireless_12_5.hostE.lo[0].lo passedUpPk:sum(packetBytes) 0
attr interpolationmode none
attr source packetSentToUpper
attr title "packets passed to higher layer, sum(packetBytes)"
scalar Wireless_12_5.hostE.wlan[0].mac.queue packetPopped:count 1
attr interpolationmode none
attr title "packet popped, count"
scalar Wireless_12_5.hostE.wlan[0].mac.queue packetPopped:sum(packetBytes) 59
attr interpolationmode none
attr title "packet popped, sum(packetBytes)"
statistic Wireless_12_5.hostE.wlan[0].mac.queue queueingTime:histogram
field count 1
field mean 0
field stddev -nan
field min 0
field max 0
field sum 0
field sqrsum 0
attr interpolationmode none
attr source queueingTime(packetPopped)
attr title "queueing times, histogram"
attr unit s
bin	-inf	0
bin	-0.5	0
bin	-0.48	0
bin	-0.46	0
bin	-0.44	0
bin	-0.42	0
bin	-0.4	0
bin	-0.38	0
bin	-0.36	0
bin	-0.34	0
bin	-0.32	0
bin	-0.3	0
bin	-0.28	0
bin	-0.26	0
bin	-0.24	0
bin	-0.22	0
bin	-0.2	0
bin	-0.18	0
bin	-0.16	0
bin	-0.14	0
bin	-0.12	0
bin	-0.1	0
bin	-0.08	0
bin	-0.06	0
bin	-0.04	0
bin	-0.02	0
bin	0	1
bin	0.02	0
bin	0.04	0
bin	0.06	0
bin	0.08	0
bin	0.1	0
bin	0.12	0
bin	0.14	0
bin	0.16	0
bin	0.18	0
bin	0.2	0
bin	0.22	0
bin	0.24	0
bin	0.26	0
bin	0.28	0
bin	0.3	0
bin	0.32	0
bin	0.34	0
bin	0.36	0
bin	0.38	0
bin	0.4	0
bin	0.42	0
bin	0.44	0
bin	0.46	0
bin	0.48	0
bin	0.5	0
scalar Wireless_12_5.hostE.wlan[0].mac.queue queueLength:max 1
attr interpolationmode sample-hold
attr source "count(packetPushed) - count(packetPopped) - count(packetRemoved) - count(packetDropped)"
attr title "queue length, max"
scalar Wireless_12_5.hostE.wlan[0].mac.queue queueLength:timeavg 0
attr interpolationmode sample-hold
attr source "count(packetPushed) - count(packetPopped) - count(packetRemoved) - count(packetDropped)"
attr title "queue length, timeavg"
scalar Wireless_12_5.hostE.wlan[0].mac.queue packetPushed:count 1
attr interpolationmode none
attr title "packet pushed, count"
scalar Wireless_12_5.hostE.wlan[0].mac.queue packetPushed:sum(packetBytes) 59
attr interpolationmode none
attr title "packet pushed, sum(packetBytes)"
scalar Wireless_12_5.hostE.wlan[0].mac.queue packetDropQueueOverflow:count 0
attr interpolationmode none
attr source packetDropReasonIsQueueOverflow(packetDropped)
attr title "packet drops: queue overflow, count"
scalar Wireless_12_5.hostE.wlan[0].mac.queue packetDropQueueOverflow:sum(packetBytes) 0
attr interpolationmode none
attr source packetDropReasonIsQueueOverflow(packetDropped)
attr title "packet drops: queue overflow, sum(packetBytes)"
scalar Wireless_12_5.hostE.wlan[0].mac.queue packetRemoved:count 0
attr interpolationmode none
attr title "packets removed, count"
scalar Wireless_12_5.hostE.wlan[0].mac.queue packetRemoved:sum(packetBytes) 0
attr interpolationmode none
attr title "packets removed, sum(packetBytes)"
scalar Wireless_12_5.hostE.wlan[0].mac numRetry 1
scalar Wireless_12_5.hostE.wlan[0].mac numSentWithoutRetry 0
scalar Wireless_12_5.hostE.wlan[0].mac numGivenUp 0
scalar Wireless_12_5.hostE.wlan[0].mac numCollision 1
scalar Wireless_12_5.hostE.wlan[0].mac numSent 1
scalar Wireless_12_5.hostE.wlan[0].mac numReceived 0
scalar Wireless_12_5.hostE.wlan[0].mac numSentBroadcast 0
scalar Wireless_12_5.hostE.wlan[0].mac numReceivedBroadcast 1
scalar Wireless_12_5.hostE.wlan[0].mac packetDropIncorrectlyReceived:count 1
attr interpolationmode none
attr source packetDropReasonIsIncorrectlyReceived(packetDropped)
attr title "packet drop: incorrectly received, count"
scalar Wireless_12_5.hostE.wlan[0].mac packetDropIncorrectlyReceived:sum(packetBytes) 59
attr interpolationmode none
attr source packetDropReasonIsIncorrectlyReceived(packetDropped)
attr title "packet drop: incorrectly received, sum(packetBytes)"
scalar Wireless_12_5.hostE.wlan[0].mac packetDropNotAddressedToUs:count 12
attr interpolationmode none
attr source packetDropReasonIsNotAddressedToUs(packetDropped)
attr title "packet drop: not addressed to us, count"
scalar Wireless_12_5.hostE.wlan[0].mac packetDropNotAddressedToUs:sum(packetBytes) 708
attr interpolationmode none
attr source packetDropReasonIsNotAddressedToUs(packetDropped)
attr title "packet drop: not addressed to us, sum(packetBytes)"
scalar Wireless_12_5.hostE.wlan[0].mac packetDropQueueOverflow:count 0
attr interpolationmode none
attr source packetDropReasonIsQueueOverflow(packetDropped)
attr title "packet drop: queue overflow, count"
scalar Wireless_12_5.hostE.wlan[0].mac packetDropQueueOverflow:sum(packetBytes) 0
attr interpolationmode none
attr source packetDropReasonIsQueueOverflow(packetDropped)
attr title "packet drop: queue overflow, sum(packetBytes)"
scalar Wireless_12_5.hostE.wlan[0].mac packetDropRetryLimitReached:count 0
attr interpolationmode none
attr source packetDropReasonIsRetryLimitReached(packetDropped)
attr title "packet drop: retry limit reached, count"
scalar Wireless_12_5.hostE.wlan[0].mac packetDropRetryLimitReached:sum(packetBytes) 0
attr interpolationmode none
attr source packetDropReasonIsRetryLimitReached(packetDropped)
attr title "packet drop: retry limit reached, sum(packetBytes)"
scalar Wireless_12_5.hostE.wlan[0].mac linkBroken:count 0
attr interpolationmode none
attr source linkBroken
attr title "link break, count"
scalar Wireless_12_5.hostE.wlan[0].radio radioMode:count 7
attr interpolationmode sample-hold
attr source radioModeChanged
attr title "Radio mode, count"
scalar Wireless_12_5.hostE.wlan[0].radio receptionState:count 59
attr interpolationmode sample-hold
attr source receptionStateChanged
attr title "Radio reception state, count"
scalar Wireless_12_5.hostE.wlan[0].radio transmissionState:count 8
attr interpolationmode sample-hold
attr source transmissionStateChanged
attr title "Radio transmission state, count"
statistic Wireless_12_5.hostE.wlan[0].radio minSnir:histogram
field count 26
field mean 7636.1887433997
field stddev 7109.8760076442
field min 0.99962363598858
field max 29737.007407376
field sum 198540.90732839
field sqrsum 2779854262.7473
attr source minimumSnir(packetSentToUpper)
attr title "Min SNIR, histogram"
bin	-inf	0
bin	0	2
bin	500	0
bin	1000	0
bin	1500	1
bin	2000	2
bin	2500	2
bin	3000	0
bin	3500	2
bin	4000	0
bin	4500	0
bin	5000	0
bin	5500	0
bin	6000	0
bin	6500	0
bin	7000	0
bin	7500	15
bin	8000	0
bin	8500	0
bin	9000	0
bin	9500	0
bin	10000	0
bin	10500	0
bin	11000	0
bin	11500	0
bin	12000	0
bin	12500	0
bin	13000	0
bin	13500	0
bin	14000	0
bin	14500	0
bin	15000	0
bin	15500	0
bin	16000	0
bin	16500	0
bin	17000	0
bin	17500	0
bin	18000	0
bin	18500	0
bin	19000	0
bin	19500	0
bin	20000	0
bin	20500	0
bin	21000	0
bin	21500	0
bin	22000	0
bin	22500	0
bin	23000	0
bin	23500	0
bin	24000	0
bin	24500	0
bin	25000	0
bin	25500	0
bin	26000	0
bin	26500	0
bin	27000	0
bin	27500	0
bin	28000	0
bin	28500	0
bin	29000	0
bin	29500	2
bin	30000	0
bin	30500	0
bin	31000	0
bin	31500	0
bin	32000	0
bin	32500	0
bin	33000	0
bin	33500	0
bin	34000	0
bin	34500	0
bin	35000	0
bin	35500	0
bin	36000	0
bin	36500	0
bin	37000	0
bin	37500	0
statistic Wireless_12_5.hostE.wlan[0].radio packetErrorRate:histogram
field count 26
field mean 0.039599663765218
field stddev 0.19596895045925
field min 0
field max 0.99999565319721
field sum 1.0295912578957
field sqrsum 1.0008672062308
attr source packetErrorRate(packetSentToUpper)
attr title "Packet error rate, histogram"
bin	-inf	0
bin	0	24
bin	0.02	1
bin	0.04	0
bin	0.06	0
bin	0.08	0
bin	0.1	0
bin	0.12	0
bin	0.14	0
bin	0.16	0
bin	0.18	0
bin	0.2	0
bin	0.22	0
bin	0.24	0
bin	0.26	0
bin	0.28	0
bin	0.3	0
bin	0.32	0
bin	0.34	0
bin	0.36	0
bin	0.38	0
bin	0.4	0
bin	0.42	0
bin	0.44	0
bin	0.46	0
bin	0.48	0
bin	0.5	0
bin	0.52	0
bin	0.54	0
bin	0.56	0
bin	0.58	0
bin	0.6	0
bin	0.62	0
bin	0.64	0
bin	0.66	0
bin	0.68	0
bin	0.7	0
bin	0.72	0
bin	0.74	0
bin	0.76	0
bin	0.78	0
bin	0.8	0
bin	0.82	0
bin	0.84	0
bin	0.86	0
bin	0.88	0
bin	0.9	0
bin	0.92	0
bin	0.94	0
bin	0.96	0
bin	0.98	1
bin	1	0
bin	1.02	0
bin	1.04	0
bin	1.06	0
bin	1.08	0
bin	1.1	0
bin	1.12	0
bin	1.14	0
bin	1.16	0
bin	1.18	0
bin	1.2	0
bin	1.22	0
bin	1.24	0
bin	1.26	0
statistic Wireless_12_5.hostE.wlan[0].radio bitErrorRate:histogram
field count 26
field mean 0.00087794267061474
field stddev 0.0044652287906017
field min 0
field max 0.022770461767922
field sum 0.022826509435983
field sqrsum 0.0005184970704655
attr source bitErrorRate(packetSentToUpper)
attr title "Bit error rate, histogram"
bin	-inf	0
bin	0	25
bin	0.0005	0
bin	0.001	0
bin	0.0015	0
bin	0.002	0
bin	0.0025	0
bin	0.003	0
bin	0.0035	0
bin	0.004	0
bin	0.0045	0
bin	0.005	0
bin	0.0055	0
bin	0.006	0
bin	0.0065	0
bin	0.007	0
bin	0.0075	0
bin	0.008	0
bin	0.0085	0
bin	0.009	0
bin	0.0095	0
bin	0.01	0
bin	0.0105	0
bin	0.011	0
bin	0.0115	0
bin	0.012	0
bin	0.0125	0
bin	0.013	0
bin	0.0135	0
bin	0.014	0
bin	0.0145	0
bin	0.015	0
bin	0.0155	0
bin	0.016	0
bin	0.0165	0
bin	0.017	0
bin	0.0175	0
bin	0.018	0
bin	0.0185	0
bin	0.019	0
bin	0.0195	0
bin	0.02	0
bin	0.0205	0
bin	0.021	0
bin	0.0215	0
bin	0.022	0
bin	0.0225	1
bin	0.023	0
bin	0.0235	0
bin	0.024	0
bin	0.0245	0
bin	0.025	0
bin	0.0255	0
bin	0.026	0
bin	0.0265	0
bin	0.027	0
bin	0.0275	0
bin	0.028	0
bin	0.0285	0
statistic Wireless_12_5.hostE.wlan[0].radio symbolErrorRate:histogram
field count 26
field mean 0.00087794267061474
field stddev 0.0044652287906017
field min 0
field max 0.022770461767922
field sum 0.022826509435983
field sqrsum 0.0005184970704655
attr source symbolErrorRate(packetSentToUpper)
attr title "Symbol error rate, histogram"
bin	-inf	0
bin	0	25
bin	0.0005	0
bin	0.001	0
bin	0.0015	0
bin	0.002	0
bin	0.0025	0
bin	0.003	0
bin	0.0035	0
bin	0.004	0
bin	0.0045	0
bin	0.005	0
bin	0.0055	0
bin	0.006	0
bin	0.0065	0
bin	0.007	0
bin	0.0075	0
bin	0.008	0
bin	0.0085	0
bin	0.009	0
bin	0.0095	0
bin	0.01	0
bin	0.0105	0
bin	0.011	0
bin	0.0115	0
bin	0.012	0
bin	0.0125	0
bin	0.013	0
bin	0.0135	0
bin	0.014	0
bin	0.0145	0
bin	0.015	0
bin	0.0155	0
bin	0.016	0
bin	0.0165	0
bin	0.017	0
bin	0.0175	0
bin	0.018	0
bin	0.0185	0
bin	0.019	0
bin	0.0195	0
bin	0.02	0
bin	0.0205	0
bin	0.021	0
bin	0.0215	0
bin	0.022	0
bin	0.0225	1
bin	0.023	0
bin	0.0235	0
bin	0.024	0
bin	0.0245	0
bin	0.025	0
bin	0.0255	0
bin	0.026	0
bin	0.0265	0
bin	0.027	0
bin	0.0275	0
bin	0.028	0
bin	0.0285	0
scalar Wireless_12_5.hostE.ipv4.ip packetDropAddressResolutionFailed:count 0
attr interpolationmode none
attr source packetDropReasonIsAddressResolutionFailed(packetDropped)
attr title "packet drop: address resolution failed, count"
scalar Wireless_12_5.hostE.ipv4.ip packetDropAddressResolutionFailed:sum(packetBytes) 0
attr interpolationmode none
attr source packetDropReasonIsAddressResolutionFailed(packetDropped)
attr title "packet drop: address resolution failed, sum(packetBytes)"
scalar Wireless_12_5.hostE.ipv4.ip packetDropHopLimitReached:count 0
attr interpolationmode none
attr source packetDropReasonIsHopLimitReached(packetDropped)
attr title "packet drop: hop limit reached, count"
scalar Wireless_12_5.hostE.ipv4.ip packetDropHopLimitReached:sum(packetBytes) 0
attr interpolationmode none
attr source packetDropReasonIsHopLimitReached(packetDropped)
attr title "packet drop: hop limit reached, sum(packetBytes)"
scalar Wireless_12_5.hostE.ipv4.ip packetDropForwardingDisabled:count 0
attr interpolationmode none
attr source packetDropReasonIsForwardingDisabled(packetDropped)
attr title "packet drop: forwarding disabled, count"
scalar Wireless_12_5.hostE.ipv4.ip packetDropForwardingDisabled:sum(packetBytes) 0
attr interpolationmode none
attr source packetDropReasonIsForwardingDisabled(packetDropped)
attr title "packet drop: forwarding disabled, sum(packetBytes)"
scalar Wireless_12_5.hostE.ipv4.ip packetDropNoInterfaceFound:count 0
attr interpolationmode none
attr source packetDropReasonIsNoInterfaceFound(packetDropped)
attr title "packet drop: no interface found, count"
scalar Wireless_12_5.hostE.ipv4.ip packetDropNoInterfaceFound:sum(packetBytes) 0
attr interpolationmode none
attr source packetDropReasonIsNoInterfaceFound(packetDropped)
attr title "packet drop: no interface found, sum(packetBytes)"
scalar Wireless_12_5.hostE.ipv4.ip packetDropNoRouteFound:count 0
attr interpolationmode none
attr source packetDropReasonIsNoRouteFound(packetDropped)
attr title "packet drop: no route found, count"
scalar Wireless_12_5.hostE.ipv4.ip packetDropNoRouteFound:sum(packetBytes) 0
attr interpolationmode none
attr source packetDropReasonIsNoRouteFound(packetDropped)
attr title "packet drop: no route found, sum(packetBytes)"
scalar Wireless_12_5.hostE.ipv4.ip packetDropUndefined:count 0
attr interpolationmode none
attr source packetDropReasonIsUndefined(packetDropped)
attr title "packet drop: undefined, count"
scalar Wireless_12_5.hostE.ipv4.ip packetDropUndefined:sum(packetBytes) 0
attr interpolationmode none
attr source packetDropReasonIsUndefined(packetDropped)
attr title "packet drop: undefined, sum(packetBytes)"
scalar Wireless_12_5.hostE.udp packetReceived:count 1
attr interpolationmode none
attr source packetReceived
attr title "packets received, count"
scalar Wireless_12_5.hostE.udp packetReceived:sum(packetBytes) 12
attr interpolationmode none
attr source packetReceived
attr title "packets received, sum(packetBytes)"
scalar Wireless_12_5.hostE.udp packetSent:count 1
attr interpolationmode none
attr source packetSent
attr title "packets sent, count"
scalar Wireless_12_5.hostE.udp packetSent:sum(packetBytes) 12
attr interpolationmode none
attr source packetSent
attr title "packets sent, sum(packetBytes)"
scalar Wireless_12_5.hostE.udp passedUpPk:count 1
attr interpolationmode none
attr source packetSentToUpper
attr title "packets passed up, count"
scalar Wireless_12_5.hostE.udp droppedPkWrongPort:count 0
attr interpolationmode none
attr source packetDropReasonIsNoPortFound(packetDropped)
attr title "packets dropped (wrong port), count"
scalar Wireless_12_5.hostE.udp droppedPkBadChecksum:count 0
attr interpolationmode none
attr source packetDropReasonIsIncorrectlyReceived(packetDropped)
attr title "packets dropped (checksum error), count"
scalar Wireless_12_5.hostF.lo[0].lo rcvdPkFromHl:count 0
attr interpolationmode none
attr source packetReceivedFromUpper
attr title "packets received from higher layer, count"
scalar Wireless_12_5.hostF.lo[0].lo rcvdPkFromHl:sum(packetBytes) 0
attr interpolationmode none
attr source packetReceivedFromUpper
attr title "packets received from higher layer, sum(packetBytes)"
scalar Wireless_12_5.hostF.lo[0].lo passedUpPk:count 0
attr interpolationmode none
attr source packetSentToUpper
attr title "packets passed to higher layer, count"
scalar Wireless_12_5.hostF.lo[0].lo passedUpPk:sum(packetBytes) 0
attr interpolationmode none
attr source packetSentToUpper
attr title "packets passed to higher layer, sum(packetBytes)"
scalar Wireless_12_5.hostF.wlan[0].mac.queue packetPopped:count 1
attr interpolationmode none
attr title "packet popped, count"
scalar Wireless_12_5.hostF.wlan[0].mac.queue packetPopped:sum(packetBytes) 59
attr interpolationmode none
attr title "packet popped, sum(packetBytes)"
statistic Wireless_12_5.hostF.wlan[0].mac.queue queueingTime:histogram
field count 1
field mean 0
field stddev -nan
field min 0
field max 0
field sum 0
field sqrsum 0
attr interpolationmode none
attr source queueingTime(packetPopped)
attr title "queueing times, histogram"
attr unit s
bin	-inf	0
bin	-0.5	0
bin	-0.48	0
bin	-0.46	0
bin	-0.44	0
bin	-0.42	0
bin	-0.4	0
bin	-0.38	0
bin	-0.36	0
bin	-0.34	0
bin	-0.32	0
bin	-0.3	0
bin	-0.28	0
bin	-0.26	0
bin	-0.24	0
bin	-0.22	0
bin	-0.2	0
bin	-0.18	0
bin	-0.16	0
bin	-0.14	0
bin	-0.12	0
bin	-0.1	0
bin	-0.08	0
bin	-0.06	0
bin	-0.04	0
bin	-0.02	0
bin	0	1
bin	0.02	0
bin	0.04	0
bin	0.06	0
bin	0.08	0
bin	0.1	0
bin	0.12	0
bin	0.14	0
bin	0.16	0
bin	0.18	0
bin	0.2	0
bin	0.22	0
bin	0.24	0
bin	0.26	0
bin	0.28	0
bin	0.3	0
bin	0.32	0
bin	0.34	0
bin	0.36	0
bin	0.38	0
bin	0.4	0
bin	0.42	0
bin	0.44	0
bin	0.46	0
bin	0.48	0
bin	0.5	0
scalar Wireless_12_5.hostF.wlan[0].mac.queue queueLength:max 1
attr interpolationmode sample-hold
attr source "count(packetPushed) - count(packetPopped) - count(packetRemoved) - count(packetDropped)"
attr title "queue length, max"
scalar Wireless_12_5.hostF.wlan[0].mac.queue queueLength:timeavg 0
attr interpolationmode sample-hold
attr source "count(packetPushed) - count(packetPopped) - count(packetRemoved) - count(packetDropped)"
attr title "queue length, timeavg"
scalar Wireless_12_5.hostF.wlan[0].mac.queue packetPushed:count 1
attr interpolationmode none
attr title "packet pushed, count"
scalar Wireless_12_5.hostF.wlan[0].mac.queue packetPushed:sum(packetBytes) 59
attr interpolationmode none
attr title "packet pushed, sum(packetBytes)"
scalar Wireless_12_5.hostF.wlan[0].mac.queue packetDropQueueOverflow:count 0
attr interpolationmode none
attr source packetDropReasonIsQueueOverflow(packetDropped)
attr title "packet drops: queue overflow, count"
scalar Wireless_12_5.hostF.wlan[0].mac.queue packetDropQueueOverflow:sum(packetBytes) 0
attr interpolationmode none
attr source packetDropReasonIsQueueOverflow(packetDropped)
attr title "packet drops: queue overflow, sum(packetBytes)"
scalar Wireless_12_5.hostF.wlan[0].mac.queue packetRemoved:count 0
attr interpolationmode none
attr title "packets removed, count"
scalar Wireless_12_5.hostF.wlan[0].mac.queue packetRemoved:sum(packetBytes) 0
attr interpolationmode none
attr title "packets removed, sum(packetBytes)"
scalar Wireless_12_5.hostF.wlan[0].mac numRetry 1
scalar Wireless_12_5.hostF.wlan[0].mac numSentWithoutRetry 0
scalar Wireless_12_5.hostF.wlan[0].mac numGivenUp 0
scalar Wireless_12_5.hostF.wlan[0].mac numCollision 1
scalar Wireless_12_5.hostF.wlan[0].mac numSent 1
scalar Wireless_12_5.hostF.wlan[0].mac numReceived 0
scalar Wireless_12_5.hostF.wlan[0].mac numSentBroadcast 0
scalar Wireless_12_5.hostF.wlan[0].mac numReceivedBroadcast 1
scalar Wireless_12_5.hostF.wlan[0].mac packetDropIncorrectlyReceived:count 1
attr interpolationmode none
attr source packetDropReasonIsIncorrectlyReceived(packetDropped)
attr title "packet drop: incorrectly received, count"
scalar Wireless_12_5.hostF.wlan[0].mac packetDropIncorrectlyReceived:sum(packetBytes) 59
attr interpolationmode none
attr source packetDropReasonIsIncorrectlyReceived(packetDropped)
attr title "packet drop: incorrectly received, sum(packetBytes)"
scalar Wireless_12_5.hostF.wlan[0].mac packetDropNotAddressedToUs:count 12
attr interpolationmode none
[...]
attr source symbolErrorRate(packetSentToUpper)
attr title "Symbol error rate, histogram"
bin	-inf	0
bin	0	25
bin	0.0002	0
bin	0.0004	0
bin	0.0006	0
bin	0.0008	0
bin	0.001	0
bin	0.0012	0
bin	0.0014	0
bin	0.0016	0
bin	0.0018	0
bin	0.002	0
bin	0.0022	0
bin	0.0024	0
bin	0.0026	0
bin	0.0028	0
bin	0.003	0
bin	0.0032	0
bin	0.0034	0
bin	0.0036	0
bin	0.0038	0
bin	0.004	0
bin	0.0042	0
bin	0.0044	0
bin	0.0046	0
bin	0.0048	0
bin	0.005	0
bin	0.0052	0
bin	0.0054	0
bin	0.0056	0
bin	0.0058	0
bin	0.006	0
bin	0.0062	0
bin	0.0064	0
bin	0.0066	0
bin	0.0068	0
bin	0.007	0
bin	0.0072	0
bin	0.0074	0
bin	0.0076	0
bin	0.0078	0
bin	0.008	0
bin	0.0082	0
bin	0.0084	0
bin	0.0086	0
bin	0.0088	0
bin	0.009	0
bin	0.0092	0
bin	0.0094	0
bin	0.0096	0
bin	0.0098	0
bin	0.01	0
bin	0.0102	0
bin	0.0104	0
bin	0.0106	0
bin	0.0108	0
bin	0.011	0
bin	0.0112	0
bin	0.0114	0
bin	0.0116	0
bin	0.0118	0
bin	0.012	0
bin	0.0122	0
bin	0.0124	0
bin	0.0126	0
bin	0.0128	1
bin	0.013	0
bin	0.0132	0
bin	0.0134	0
bin	0.0136	0
bin	0.0138	0
bin	0.014	0
bin	0.0142	0
bin	0.0144	0
bin	0.0146	0
bin	0.0148	0
bin	0.015	0
bin	0.0152	0
bin	0.0154	0
bin	0.0156	0
bin	0.0158	0
bin	0.016	0
bin	0.0162	0
scalar Wireless_12_5.hostL.ipv4.ip packetDropAddressResolutionFailed:count 0
attr interpolationmode none
attr source packetDropReasonIsAddressResolutionFailed(packetDropped)
attr title "packet drop: address resolution failed, count"
scalar Wireless_12_5.hostL.ipv4.ip packetDropAddressResolutionFailed:sum(packetBytes) 0
attr interpolationmode none
attr source packetDropReasonIsAddressResolutionFailed(packetDropped)
attr title "packet drop: address resolution failed, sum(packetBytes)"
scalar Wireless_12_5.hostL.ipv4.ip packetDropHopLimitReached:count 0
attr interpolationmode none
attr source packetDropReasonIsHopLimitReached(packetDropped)
attr title "packet drop: hop limit reached, count"
scalar Wireless_12_5.hostL.ipv4.ip packetDropHopLimitReached:sum(packetBytes) 0
attr interpolationmode none
attr source packetDropReasonIsHopLimitReached(packetDropped)
attr title "packet drop: hop limit reached, sum(packetBytes)"
scalar Wireless_12_5.hostL.ipv4.ip packetDropForwardingDisabled:count 0
attr interpolationmode none
attr source packetDropReasonIsForwardingDisabled(packetDropped)
attr title "packet drop: forwarding disabled, count"
scalar Wireless_12_5.hostL.ipv4.ip packetDropForwardingDisabled:sum(packetBytes) 0
attr interpolationmode none
attr source packetDropReasonIsForwardingDisabled(packetDropped)
attr title "packet drop: forwarding disabled, sum(packetBytes)"
scalar Wireless_12_5.hostL.ipv4.ip packetDropNoInterfaceFound:count 0
attr interpolationmode none
attr source packetDropReasonIsNoInterfaceFound(packetDropped)
attr title "packet drop: no interface found, count"
scalar Wireless_12_5.hostL.ipv4.ip packetDropNoInterfaceFound:sum(packetBytes) 0
attr interpolationmode none
attr source packetDropReasonIsNoInterfaceFound(packetDropped)
attr title "packet drop: no interface found, sum(packetBytes)"
scalar Wireless_12_5.hostL.ipv4.ip packetDropNoRouteFound:count 0
attr interpolationmode none
attr source packetDropReasonIsNoRouteFound(packetDropped)
attr title "packet drop: no route found, count"
scalar Wireless_12_5.hostL.ipv4.ip packetDropNoRouteFound:sum(packetBytes) 0
attr interpolationmode none
attr source packetDropReasonIsNoRouteFound(packetDropped)
attr title "packet drop: no route found, sum(packetBytes)"
scalar Wireless_12_5.hostL.ipv4.ip packetDropUndefined:count 0
attr interpolationmode none
attr source packetDropReasonIsUndefined(packetDropped)
attr title "packet drop: undefined, count"
scalar Wireless_12_5.hostL.ipv4.ip packetDropUndefined:sum(packetBytes) 0
attr interpolationmode none
attr source packetDropReasonIsUndefined(packetDropped)
attr title "packet drop: undefined, sum(packetBytes)"
scalar Wireless_12_5.hostL.udp packetReceived:count 1
attr interpolationmode none
attr source packetReceived
attr title "packets received, count"
scalar Wireless_12_5.hostL.udp packetReceived:sum(packetBytes) 12
attr interpolationmode none
attr source packetReceived
attr title "packets received, sum(packetBytes)"
scalar Wireless_12_5.hostL.udp packetSent:count 1
attr interpolationmode none
attr source packetSent
attr title "packets sent, count"
scalar Wireless_12_5.hostL.udp packetSent:sum(packetBytes) 12
attr interpolationmode none
attr source packetSent
attr title "packets sent, sum(packetBytes)"
scalar Wireless_12_5.hostL.udp passedUpPk:count 1
attr interpolationmode none
attr source packetSentToUpper
attr title "packets passed up, count"
scalar Wireless_12_5.hostL.udp droppedPkWrongPort:count 0
attr interpolationmode none
attr source packetDropReasonIsNoPortFound(packetDropped)
attr title "packets dropped (wrong port), count"
scalar Wireless_12_5.hostL.udp droppedPkBadChecksum:count 0
attr interpolationmode none
attr source packetDropReasonIsIncorrectlyReceived(packetDropped)
attr title "packets dropped (checksum error), count"
scalar Wireless_12_5.hostM.lo[0].lo rcvdPkFromHl:count 0
attr interpolationmode none
attr source packetReceivedFromUpper
attr title "packets received from higher layer, count"
scalar Wireless_12_5.hostM.lo[0].lo rcvdPkFromHl:sum(packetBytes) 0
attr interpolationmode none
attr source packetReceivedFromUpper
attr title "packets received from higher layer, sum(packetBytes)"
scalar Wireless_12_5.hostM.lo[0].lo passedUpPk:count 0
attr interpolationmode none
attr source packetSentToUpper
attr title "packets passed to higher layer, count"
scalar Wireless_12_5.hostM.lo[0].lo passedUpPk:sum(packetBytes) 0
attr interpolationmode none
attr source packetSentToUpper
attr title "packets passed to higher layer, sum(packetBytes)"
scalar Wireless_12_5.hostM.wlan[0].mac.queue packetPopped:count 1
attr interpolationmode none
attr title "packet popped, count"
scalar Wireless_12_5.hostM.wlan[0].mac.queue packetPopped:sum(packetBytes) 59
attr interpolationmode none
attr title "packet popped, sum(packetBytes)"
statistic Wireless_12_5.hostM.wlan[0].mac.queue queueingTime:histogram
field count 1
field mean 0
field stddev -nan
field min 0
field max 0
field sum 0
field sqrsum 0
attr interpolationmode none
attr source queueingTime(packetPopped)
attr title "queueing times, histogram"
attr unit s
bin	-inf	0
bin	-0.5	0
bin	-0.48	0
bin	-0.46	0
bin	-0.44	0
bin	-0.42	0
bin	-0.4	0
bin	-0.38	0
bin	-0.36	0
bin	-0.34	0
bin	-0.32	0
bin	-0.3	0
bin	-0.28	0
bin	-0.26	0
bin	-0.24	0
bin	-0.22	0
bin	-0.2	0
bin	-0.18	0
bin	-0.16	0
bin	-0.14	0
bin	-0.12	0
bin	-0.1	0
bin	-0.08	0
bin	-0.06	0
bin	-0.04	0
bin	-0.02	0
bin	0	1
bin	0.02	0
bin	0.04	0
bin	0.06	0
bin	0.08	0
bin	0.1	0
bin	0.12	0
bin	0.14	0
bin	0.16	0
bin	0.18	0
bin	0.2	0
bin	0.22	0
bin	0.24	0
bin	0.26	0
bin	0.28	0
bin	0.3	0
bin	0.32	0
bin	0.34	0
bin	0.36	0
bin	0.38	0
bin	0.4	0
bin	0.42	0
bin	0.44	0
bin	0.46	0
bin	0.48	0
bin	0.5	0
scalar Wireless_12_5.hostM.wlan[0].mac.queue queueLength:max 1
attr interpolationmode sample-hold
attr source "count(packetPushed) - count(packetPopped) - count(packetRemoved) - count(packetDropped)"
attr title "queue length, max"
scalar Wireless_12_5.hostM.wlan[0].mac.queue queueLength:timeavg 0
attr interpolationmode sample-hold
attr source "count(packetPushed) - count(packetPopped) - count(packetRemoved) - count(packetDropped)"
attr title "queue length, timeavg"
scalar Wireless_12_5.hostM.wlan[0].mac.queue packetPushed:count 1
attr interpolationmode none
attr title "packet pushed, count"
scalar Wireless_12_5.hostM.wlan[0].mac.queue packetPushed:sum(packetBytes) 59
attr interpolationmode none
attr title "packet pushed, sum(packetBytes)"
scalar Wireless_12_5.hostM.wlan[0].mac.queue packetDropQueueOverflow:count 0
attr interpolationmode none
attr source packetDropReasonIsQueueOverflow(packetDropped)
attr title "packet drops: queue overflow, count"
scalar Wireless_12_5.hostM.wlan[0].mac.queue packetDropQueueOverflow:sum(packetBytes) 0
attr interpolationmode none
attr source packetDropReasonIsQueueOverflow(packetDropped)
attr title "packet drops: queue overflow, sum(packetBytes)"
scalar Wireless_12_5.hostM.wlan[0].mac.queue packetRemoved:count 0
attr interpolationmode none
attr title "packets removed, count"
scalar Wireless_12_5.hostM.wlan[0].mac.queue packetRemoved:sum(packetBytes) 0
attr interpolationmode none
attr title "packets removed, sum(packetBytes)"
scalar Wireless_12_5.hostM.wlan[0].mac numRetry 0
scalar Wireless_12_5.hostM.wlan[0].mac numSentWithoutRetry 1
scalar Wireless_12_5.hostM.wlan[0].mac numGivenUp 0
scalar Wireless_12_5.hostM.wlan[0].mac numCollision 1
scalar Wireless_12_5.hostM.wlan[0].mac numSent 1
scalar Wireless_12_5.hostM.wlan[0].mac numReceived 0
scalar Wireless_12_5.hostM.wlan[0].mac numSentBroadcast 0
scalar Wireless_12_5.hostM.wlan[0].mac numReceivedBroadcast 1
scalar Wireless_12_5.hostM.wlan[0].mac packetDropIncorrectlyReceived:count 1
attr interpolationmode none
attr source packetDropReasonIsIncorrectlyReceived(packetDropped)
attr title "packet drop: incorrectly received, count"
scalar Wireless_12_5.hostM.wlan[0].mac packetDropIncorrectlyReceived:sum(packetBytes) 59
attr interpolationmode none
attr source packetDropReasonIsIncorrectlyReceived(packetDropped)
attr title "packet drop: incorrectly received, sum(packetBytes)"
scalar Wireless_12_5.hostM.wlan[0].mac packetDropNotAddressedToUs:count 13
attr interpolationmode none
attr source packetDropReasonIsNotAddressedToUs(packetDropped)
attr title "packet drop: not addressed to us, count"
scalar Wireless_12_5.hostM.wlan[0].mac packetDropNotAddressedToUs:sum(packetBytes) 767
attr interpolationmode none
attr source packetDropReasonIsNotAddressedToUs(packetDropped)
attr title "packet drop: not addressed to us, sum(packetBytes)"
scalar Wireless_12_5.hostM.wlan[0].mac packetDropQueueOverflow:count 0
attr interpolationmode none
attr source packetDropReasonIsQueueOverflow(packetDropped)
attr title "packet drop: queue overflow, count"
scalar Wireless_12_5.hostM.wlan[0].mac packetDropQueueOverflow:sum(packetBytes) 0
attr interpolationmode none
attr source packetDropReasonIsQueueOverflow(packetDropped)
attr title "packet drop: queue overflow, sum(packetBytes)"
scalar Wireless_12_5.hostM.wlan[0].mac packetDropRetryLimitReached:count 0
attr interpolationmode none
attr source packetDropReasonIsRetryLimitReached(packetDropped)
attr title "packet drop: retry limit reached, count"
scalar Wireless_12_5.hostM.wlan[0].mac packetDropRetryLimitReached:sum(packetBytes) 0
attr interpolationmode none
attr source packetDropReasonIsRetryLimitReached(packetDropped)
attr title "packet drop: retry limit reached, sum(packetBytes)"
scalar Wireless_12_5.hostM.wlan[0].mac linkBroken:count 0
attr interpolationmode none
attr source linkBroken
attr title "link break, count"
scalar Wireless_12_5.hostM.wlan[0].radio radioMode:count 5
attr interpolationmode sample-hold
attr source radioModeChanged
attr title "Radio mode, count"
scalar Wireless_12_5.hostM.wlan[0].radio receptionState:count 60
attr interpolationmode sample-hold
attr source receptionStateChanged
attr title "Radio reception state, count"
scalar Wireless_12_5.hostM.wlan[0].radio transmissionState:count 4
attr interpolationmode sample-hold
attr source transmissionStateChanged
attr title "Radio transmission state, count"
statistic Wireless_12_5.hostM.wlan[0].radio minSnir:histogram
field count 27
field mean 7353.9516612697
field stddev 7124.3843245615
field min 1.8651518050333
field max 29737.007407376
field sum 198556.69485428
field sqrsum 2779854488.0854
attr source minimumSnir(packetSentToUpper)
attr title "Min SNIR, histogram"
bin	-inf	0
bin	0	3
bin	500	0
bin	1000	0
bin	1500	1
bin	2000	2
bin	2500	2
bin	3000	0
bin	3500	2
bin	4000	0
bin	4500	0
bin	5000	0
bin	5500	0
bin	6000	0
bin	6500	0
bin	7000	0
bin	7500	15
bin	8000	0
bin	8500	0
bin	9000	0
bin	9500	0
bin	10000	0
bin	10500	0
bin	11000	0
bin	11500	0
bin	12000	0
bin	12500	0
bin	13000	0
bin	13500	0
bin	14000	0
bin	14500	0
bin	15000	0
bin	15500	0
bin	16000	0
bin	16500	0
bin	17000	0
bin	17500	0
bin	18000	0
bin	18500	0
bin	19000	0
bin	19500	0
bin	20000	0
bin	20500	0
bin	21000	0
bin	21500	0
bin	22000	0
bin	22500	0
bin	23000	0
bin	23500	0
bin	24000	0
bin	24500	0
bin	25000	0
bin	25500	0
bin	26000	0
bin	26500	0
bin	27000	0
bin	27500	0
bin	28000	0
bin	28500	0
bin	29000	0
bin	29500	2
bin	30000	0
bin	30500	0
bin	31000	0
bin	31500	0
bin	32000	0
bin	32500	0
bin	33000	0
bin	33500	0
bin	34000	0
bin	34500	0
bin	35000	0
bin	35500	0
bin	36000	0
bin	36500	0
bin	37000	0
bin	37500	0
statistic Wireless_12_5.hostM.wlan[0].radio packetErrorRate:histogram
field count 27
field mean 0.031315150216042
field stddev 0.15692202658425
field min 0
field max 0.81599239769435
field sum 0.84550905583314
field sqrsum 0.66671482620248
attr source packetErrorRate(packetSentToUpper)
attr title "Packet error rate, histogram"
bin	-inf	0
bin	0	25
bin	0.02	1
bin	0.04	0
bin	0.06	0
bin	0.08	0
bin	0.1	0
bin	0.12	0
bin	0.14	0
bin	0.16	0
bin	0.18	0
bin	0.2	0
bin	0.22	0
bin	0.24	0
bin	0.26	0
bin	0.28	0
bin	0.3	0
bin	0.32	0
bin	0.34	0
bin	0.36	0
bin	0.38	0
bin	0.4	0
bin	0.42	0
bin	0.44	0
bin	0.46	0
bin	0.48	0
bin	0.5	0
bin	0.52	0
bin	0.54	0
bin	0.56	0
bin	0.58	0
bin	0.6	0
bin	0.62	0
bin	0.64	0
bin	0.66	0
bin	0.68	0
bin	0.7	0
bin	0.72	0
bin	0.74	0
bin	0.76	0
bin	0.78	0
bin	0.8	1
bin	0.82	0
bin	0.84	0
bin	0.86	0
bin	0.88	0
bin	0.9	0
bin	0.92	0
bin	0.94	0
bin	0.96	0
bin	0.98	0
bin	1	0
bin	1.02	0
statistic Wireless_12_5.hostM.wlan[0].radio bitErrorRate:histogram
field count 27
field mean 0.00011885490474869
field stddev 0.00060651255401177
field min 0
field max 0.003153186525875
field sum 0.0032090824282147
field sqrsum 9.9457096188572e-06
attr source bitErrorRate(packetSentToUpper)
attr title "Bit error rate, histogram"
bin	-inf	0
bin	0	25
bin	5e-05	1
bin	0.0001	0
bin	0.00015	0
bin	0.0002	0
bin	0.00025	0
bin	0.0003	0
bin	0.00035	0
bin	0.0004	0
bin	0.00045	0
bin	0.0005	0
bin	0.00055	0
bin	0.0006	0
bin	0.00065	0
bin	0.0007	0
bin	0.00075	0
bin	0.0008	0
bin	0.00085	0
bin	0.0009	0
bin	0.00095	0
bin	0.001	0
bin	0.00105	0
bin	0.0011	0
bin	0.00115	0
bin	0.0012	0
bin	0.00125	0
bin	0.0013	0
bin	0.00135	0
bin	0.0014	0
bin	0.00145	0
bin	0.0015	0
bin	0.00155	0
bin	0.0016	0
bin	0.00165	0
bin	0.0017	0
bin	0.00175	0
bin	0.0018	0
bin	0.00185	0
bin	0.0019	0
bin	0.00195	0
bin	0.002	0
bin	0.00205	0
bin	0.0021	0
bin	0.00215	0
bin	0.0022	0
bin	0.00225	0
bin	0.0023	0
bin	0.00235	0
bin	0.0024	0
bin	0.00245	0
bin	0.0025	0
bin	0.00255	0
bin	0.0026	0
bin	0.00265	0
bin	0.0027	0
bin	0.00275	0
bin	0.0028	0
bin	0.00285	0
bin	0.0029	0
bin	0.00295	0
bin	0.003	0
bin	0.00305	0
bin	0.0031	0
bin	0.00315	1
bin	0.0032	0
bin	0.00325	0
bin	0.0033	0
bin	0.00335	0
bin	0.0034	0
bin	0.00345	0
bin	0.0035	0
bin	0.00355	0
bin	0.0036	0
bin	0.00365	0
bin	0.0037	0
bin	0.00375	0
bin	0.0038	0
bin	0.00385	0
bin	0.0039	0
bin	0.00395	0
statistic Wireless_12_5.hostM.wlan[0].radio symbolErrorRate:histogram
field count 27
field mean 0.00011885490474869
field stddev 0.00060651255401177
field min 0
field max 0.003153186525875
field sum 0.0032090824282147
field sqrsum 9.9457096188572e-06
attr source symbolErrorRate(packetSentToUpper)
attr title "Symbol error rate, histogram"
bin	-inf	0
bin	0	25
bin	5e-05	1
bin	0.0001	0
bin	0.00015	0
bin	0.0002	0
bin	0.00025	0
bin	0.0003	0
bin	0.00035	0
bin	0.0004	0
bin	0.00045	0
bin	0.0005	0
bin	0.00055	0
bin	0.0006	0
bin	0.00065	0
bin	0.0007	0
bin	0.00075	0
bin	0.0008	0
bin	0.00085	0
bin	0.0009	0
bin	0.00095	0
bin	0.001	0
bin	0.00105	0
bin	0.0011	0
bin	0.00115	0
bin	0.0012	0
bin	0.00125	0
bin	0.0013	0
bin	0.00135	0
bin	0.0014	0
bin	0.00145	0
bin	0.0015	0
bin	0.00155	0
bin	0.0016	0
bin	0.00165	0
bin	0.0017	0
bin	0.00175	0
bin	0.0018	0
bin	0.00185	0
bin	0.0019	0
bin	0.00195	0
bin	0.002	0
bin	0.00205	0
bin	0.0021	0
bin	0.00215	0
bin	0.0022	0
bin	0.00225	0
bin	0.0023	0
bin	0.00235	0
bin	0.0024	0
bin	0.00245	0
bin	0.0025	0
bin	0.00255	0
bin	0.0026	0
bin	0.00265	0
bin	0.0027	0
bin	0.00275	0
bin	0.0028	0
bin	0.00285	0
bin	0.0029	0
bin	0.00295	0
bin	0.003	0
bin	0.00305	0
bin	0.0031	0
bin	0.00315	1
bin	0.0032	0
bin	0.00325	0
bin	0.0033	0
bin	0.00335	0
bin	0.0034	0
bin	0.00345	0
bin	0.0035	0
bin	0.00355	0
bin	0.0036	0
bin	0.00365	0
bin	0.0037	0
bin	0.00375	0
bin	0.0038	0
bin	0.00385	0
bin	0.0039	0
bin	0.00395	0
scalar Wireless_12_5.hostM.ipv4.ip packetDropAddressResolutionFailed:count 0
attr interpolationmode none
attr source packetDropReasonIsAddressResolutionFailed(packetDropped)
attr title "packet drop: address resolution failed, count"
scalar Wireless_12_5.hostM.ipv4.ip packetDropAddressResolutionFailed:sum(packetBytes) 0
attr interpolationmode none
attr source packetDropReasonIsAddressResolutionFailed(packetDropped)
attr title "packet drop: address resolution failed, sum(packetBytes)"
scalar Wireless_12_5.hostM.ipv4.ip packetDropHopLimitReached:count 0
attr interpolationmode none
attr source packetDropReasonIsHopLimitReached(packetDropped)
attr title "packet drop: hop limit reached, count"
scalar Wireless_12_5.hostM.ipv4.ip packetDropHopLimitReached:sum(packetBytes) 0
attr interpolationmode none
attr source packetDropReasonIsHopLimitReached(packetDropped)
attr title "packet drop: hop limit reached, sum(packetBytes)"
scalar Wireless_12_5.hostM.ipv4.ip packetDropForwardingDisabled:count 0
attr interpolationmode none
attr source packetDropReasonIsForwardingDisabled(packetDropped)
attr title "packet drop: forwarding disabled, count"
scalar Wireless_12_5.hostM.ipv4.ip packetDropForwardingDisabled:sum(packetBytes) 0
attr interpolationmode none
attr source packetDropReasonIsForwardingDisabled(packetDropped)
attr title "packet drop: forwarding disabled, sum(packetBytes)"
scalar Wireless_12_5.hostM.ipv4.ip packetDropNoInterfaceFound:count 0
attr interpolationmode none
attr source packetDropReasonIsNoInterfaceFound(packetDropped)
attr title "packet drop: no interface found, count"
scalar Wireless_12_5.hostM.ipv4.ip packetDropNoInterfaceFound:sum(packetBytes) 0
attr interpolationmode none
attr source packetDropReasonIsNoInterfaceFound(packetDropped)
attr title "packet drop: no interface found, sum(packetBytes)"
scalar Wireless_12_5.hostM.ipv4.ip packetDropNoRouteFound:count 0
attr interpolationmode none
attr source packetDropReasonIsNoRouteFound(packetDropped)
attr title "packet drop: no route found, count"
scalar Wireless_12_5.hostM.ipv4.ip packetDropNoRouteFound:sum(packetBytes) 0
attr interpolationmode none
attr source packetDropReasonIsNoRouteFound(packetDropped)
attr title "packet drop: no route found, sum(packetBytes)"
scalar Wireless_12_5.hostM.ipv4.ip packetDropUndefined:count 0
attr interpolationmode none
attr source packetDropReasonIsUndefined(packetDropped)
attr title "packet drop: undefined, count"
scalar Wireless_12_5.hostM.ipv4.ip packetDropUndefined:sum(packetBytes) 0
attr interpolationmode none
attr source packetDropReasonIsUndefined(packetDropped)
attr title "packet drop: undefined, sum(packetBytes)"
scalar Wireless_12_5.hostM.udp packetReceived:count 1
attr interpolationmode none
attr source packetReceived
attr title "packets received, count"
scalar Wireless_12_5.hostM.udp packetReceived:sum(packetBytes) 12
attr interpolationmode none
attr source packetReceived
attr title "packets received, sum(packetBytes)"
scalar Wireless_12_5.hostM.udp packetSent:count 1
attr interpolationmode none
attr source packetSent
attr title "packets sent, count"
scalar Wireless_12_5.hostM.udp packetSent:sum(packetBytes) 12
attr interpolationmode none
attr source packetSent
attr title "packets sent, sum(packetBytes)"
scalar Wireless_12_5.hostM.udp passedUpPk:count 1
attr interpolationmode none
attr source packetSentToUpper
attr title "packets passed up, count"
scalar Wireless_12_5.hostM.udp droppedPkWrongPort:count 0
attr interpolationmode none
attr source packetDropReasonIsNoPortFound(packetDropped)
attr title "packets dropped (wrong port), count"
scalar Wireless_12_5.hostM.udp droppedPkBadChecksum:count 0
attr interpolationmode none
attr source packetDropReasonIsIncorrectlyReceived(packetDropped)
attr title "packets dropped (checksum error), count"

